<?xml version="1.0"?>
<!-- generated on 2017-08-25 20:28:12.060000 by $Id: randomTrips.py 23999 2017-04-21 09:04:47Z behrisch $
  options: -n map.net.xml -r map.rou.xml -e 800 -l
-->
<routes xmlns:xsi="http://www.w3.org/2001/XMLSchema-instance" xsi:noNamespaceSchemaLocation="http://sumo.dlr.de/xsd/routes_file.xsd">
    <trip id="0" depart="0.00" from="-106335692#11" to="255247886#0"/>
    <trip id="1" depart="0.00" from="22764020#1" to="-244509935#1"/>
    <trip id="2" depart="0.00" from="269789001#6" to="-269788952#2"/>
    <trip id="3" depart="0.00" from="111811881#5" to="269502157#2"/>
    <trip id="4" depart="0.00" from="238211712#1" to="29044036#1"/>
    <trip id="5" depart="0.00" from="264400582#0" to="51919245#0"/>
    <trip id="6" depart="0.00" from="-269788959#2" to="-268564488#1"/>
    <trip id="7" depart="0.00" from="269788952#4" to="179000190#1"/>
    <trip id="8" depart="0.00" from="17496274#1" to="-244509935#1"/>
    <trip id="9" depart="0.00" from="256186570#0" to="-106335692#7"/>
    <trip id="10" depart="0.00" from="-246651378#0" to="243317512#1"/>
    <trip id="11" depart="0.00" from="269788959#2" to="133236950#1"/>
    <trip id="12" depart="0.00" from="-264400583#1" to="264400582#2"/>
    <trip id="13" depart="0.00" from="24006848" to="22764012#1"/>
    <trip id="14" depart="0.00" from="-269788952#2" to="52513625#2"/>
    <trip id="15" depart="0.00" from="198582308#2" to="330804415#1"/>
    <trip id="16" depart="0.00" from="-238208422" to="-29251608#1"/>
    <trip id="17" depart="0.00" from="-179000190#1" to="-179000190#1"/>
    <trip id="18" depart="0.00" from="293207793#1" to="-312929522#0"/>
    <trip id="19" depart="0.00" from="256263215#1" to="317410455"/>
    <trip id="20" depart="0.00" from="366116366#2" to="255247886#0"/>
    <trip id="21" depart="0.00" from="-60787468#0" to="-264400583#8"/>
    <trip id="22" depart="0.00" from="247027454#4" to="22764012#1"/>
    <trip id="23" depart="0.00" from="-22764012#1" to="247027452#0"/>
    <trip id="24" depart="0.00" from="333293972#0" to="269788952#2"/>
    <trip id="25" depart="0.00" from="-269788952#5" to="269788959#2"/>
    <trip id="26" depart="0.00" from="-179000190#1" to="22764014#0"/>
    <trip id="27" depart="0.00" from="269788959#0" to="198582308#2"/>
    <trip id="28" depart="0.00" from="52513625#1" to="-270025401#1"/>
    <trip id="29" depart="0.00" from="269789001#2" to="-334849020#0"/>
    <trip id="30" depart="0.00" from="-262844198#0" to="22764020#1"/>
    <trip id="31" depart="0.00" from="247027457#4" to="247027454#5"/>
    <trip id="32" depart="0.00" from="247027453#4" to="264400582#0"/>
    <trip id="33" depart="0.00" from="255247886#2" to="33679533"/>
    <trip id="34" depart="0.00" from="312929522#0" to="246651383#2"/>
    <trip id="35" depart="0.00" from="334849020#2" to="269788955#3"/>
    <trip id="36" depart="0.00" from="269478660#0" to="468047666"/>
    <trip id="37" depart="0.00" from="17496274#0" to="-24000959#1"/>
    <trip id="38" depart="0.00" from="197315982" to="111811881#2"/>
    <trip id="39" depart="0.00" from="256186570#1" to="29395277#1"/>
    <trip id="40" depart="0.00" from="106335692#11" to="106335692#11"/>
    <trip id="41" depart="0.00" from="17496274#1" to="-264400583#8"/>
    <trip id="42" depart="0.00" from="29251608#1" to="244407979#1"/>
    <trip id="43" depart="0.00" from="133236950#5" to="243317512#0"/>
    <trip id="44" depart="0.00" from="-197664859#1" to="247027454#4"/>
    <trip id="45" depart="0.00" from="268564486#0" to="-269789001#2"/>
    <trip id="46" depart="0.00" from="244407979#3" to="-256186579#2"/>
    <trip id="47" depart="0.00" from="-312929522#4" to="256263215#1"/>
    <trip id="48" depart="0.00" from="-60787468#2" to="244407979#3"/>
    <trip id="49" depart="0.00" from="-255247886#2" to="269788955#2"/>
    <trip id="50" depart="0.00" from="-264400583#6" to="238699263#0"/>
    <trip id="51" depart="0.00" from="-60787474#5" to="60787467#1"/>
    <trip id="52" depart="0.00" from="269788952#5" to="247027457#4"/>
    <trip id="53" depart="0.00" from="264400582#1" to="401377039#2"/>
    <trip id="54" depart="0.00" from="303413199#6" to="29395277#1"/>
    <trip id="55" depart="0.00" from="29251608#1" to="289004422#1"/>
    <trip id="56" depart="0.00" from="52513625#0" to="293207793#1"/>
    <trip id="57" depart="0.00" from="268564488#1" to="22764020#1"/>
    <trip id="58" depart="0.00" from="-269788959#2" to="286098898#1"/>
    <trip id="59" depart="0.00" from="289609880" to="238208422"/>
    <trip id="60" depart="0.00" from="334849020#0" to="401377039#2"/>
    <trip id="61" depart="0.00" from="334849011" to="247027463#1"/>
    <trip id="62" depart="0.00" from="-255431340#1" to="238699263#3"/>
    <trip id="63" depart="0.00" from="-255247886#0" to="286098898#1"/>
    <trip id="64" depart="0.00" from="-312929522#4" to="-312929530#1"/>
    <trip id="65" depart="0.00" from="133236950#3" to="-270025401#1"/>
    <trip id="66" depart="0.00" from="52513625#2" to="-279397395"/>
    <trip id="67" depart="0.00" from="289609880" to="60787468#2"/>
    <trip id="68" depart="0.00" from="244450484#1" to="270025400#0"/>
    <trip id="69" depart="0.00" from="247027467" to="23416666#1"/>
    <trip id="70" depart="0.00" from="-269789001#3" to="-29251608#1"/>
    <trip id="71" depart="0.00" from="24000959#1" to="52513625#3"/>
    <trip id="72" depart="0.00" from="-330804416#1" to="-269478660#0"/>
    <trip id="73" depart="0.00" from="334849012" to="238211713#1"/>
    <trip id="74" depart="0.00" from="60787468#4" to="244407979#0"/>
    <trip id="75" depart="0.00" from="24006848" to="-244456575"/>
    <trip id="76" depart="0.00" from="293207793#1" to="264400583#8"/>
    <trip id="77" depart="0.00" from="268564472#2" to="247027461#2"/>
    <trip id="78" depart="0.00" from="29251608#1" to="366116371"/>
    <trip id="79" depart="0.00" from="269788952#2" to="330804415#2"/>
    <trip id="80" depart="0.00" from="133236950#1" to="198582308#2"/>
    <trip id="81" depart="0.00" from="247027454#4" to="289004422#1"/>
    <trip id="82" depart="0.00" from="-106335692#11" to="366116366#1"/>
    <trip id="83" depart="0.00" from="243317510#1" to="-334849020#0"/>
    <trip id="84" depart="0.00" from="264400582#2" to="247027454#4"/>
    <trip id="85" depart="0.00" from="247027454#4" to="82392154"/>
    <trip id="86" depart="0.00" from="17496274#1" to="-264400583#3"/>
    <trip id="87" depart="0.00" from="264400582#0" to="312929522#4"/>
    <trip id="88" depart="0.00" from="374960473" to="-60787474#5"/>
    <trip id="89" depart="0.00" from="17496274#1" to="106335692#2"/>
    <trip id="90" depart="0.00" from="312929522#4" to="269788952#5"/>
    <trip id="91" depart="0.00" from="334852287#1" to="17496274#1"/>
    <trip id="92" depart="0.00" from="24000959#1" to="-255431340#1"/>
    <trip id="93" depart="0.00" from="244509952" to="-179000190#0"/>
    <trip id="94" depart="0.00" from="262844200#0" to="-244456575"/>
    <trip id="95" depart="0.00" from="229885663#1" to="312929522#0"/>
    <trip id="96" depart="0.00" from="22764020#1" to="197664859#1"/>
    <trip id="97" depart="0.00" from="-238208422" to="111811881#1"/>
    <trip id="98" depart="0.00" from="468047666" to="-262844200#0"/>
    <trip id="99" depart="0.00" from="366116366#1" to="29395277#1"/>
    <trip id="100" depart="1.00" from="24006848" to="244509935#1"/>
    <trip id="101" depart="1.00" from="425376583#1" to="29251608#1"/>
    <trip id="102" depart="1.00" from="-330804415#1" to="264400583#8"/>
    <trip id="103" depart="1.00" from="468047666" to="238211713#1"/>
    <trip id="104" depart="1.00" from="333293972#0" to="247027454#4"/>
    <trip id="105" depart="1.00" from="366116371" to="-312929522#0"/>
    <trip id="106" depart="1.00" from="-255431340#1" to="-330804415#1"/>
    <trip id="107" depart="1.00" from="247027457#4" to="-264400583#8"/>
    <trip id="108" depart="1.00" from="51919245#0" to="-255247886#2"/>
    <trip id="109" depart="1.00" from="256186572#1" to="264400582#0"/>
    <trip id="110" depart="1.00" from="264400582#2" to="-334849020#0"/>
    <trip id="111" depart="1.00" from="330804416#1" to="51919245#0"/>
    <trip id="112" depart="1.00" from="-60787469#0" to="-229885663#1"/>
    <trip id="113" depart="1.00" from="17496274#0" to="17496274#1"/>
    <trip id="114" depart="1.00" from="106335692#11" to="269789001#3"/>
    <trip id="115" depart="1.00" from="264400583#8" to="-24000959#1"/>
    <trip id="116" depart="1.00" from="17496274#1" to="330804415#1"/>
    <trip id="117" depart="1.00" from="268564488#1" to="268564472#2"/>
    <trip id="118" depart="1.00" from="-312929522#4" to="401377039#2"/>
    <trip id="119" depart="1.00" from="269788955#9" to="-106335692#11"/>
    <trip id="120" depart="1.00" from="24000959#4" to="264400582#1"/>
    <trip id="121" depart="1.00" from="333293972#0" to="24000959#6"/>
    <trip id="122" depart="1.00" from="229885663#1" to="29044036#1"/>
    <trip id="123" depart="1.00" from="106335692#7" to="-269788952#2"/>
    <trip id="124" depart="1.00" from="243317512#0" to="-60787469#2"/>
    <trip id="125" depart="1.00" from="-279397395" to="60787468#3"/>
    <trip id="126" depart="1.00" from="262844200#0" to="312929522#4"/>
    <trip id="127" depart="1.00" from="269788952#5" to="52513625#3"/>
    <trip id="128" depart="1.00" from="22764014#0" to="-29251608#1"/>
    <trip id="129" depart="1.00" from="243317512#0" to="238211713#1"/>
    <trip id="130" depart="1.00" from="247027454#5" to="197664859#1"/>
    <trip id="131" depart="1.00" from="60787467#3" to="-330804416#0"/>
    <trip id="132" depart="1.00" from="22764012#1" to="17496274#1"/>
    <trip id="133" depart="1.00" from="-60787468#4" to="243317510#2"/>
    <trip id="134" depart="1.00" from="-246651378#0" to="269478660#0"/>
    <trip id="135" depart="1.00" from="-269788952#5" to="-312929522#0"/>
    <trip id="136" depart="1.00" from="60787472" to="286098898#1"/>
    <trip id="137" depart="1.00" from="247027462#0" to="-334849020#0"/>
    <trip id="138" depart="1.00" from="269788952#2" to="-229885663#1"/>
    <trip id="139" depart="1.00" from="-268564488#1" to="249706146#2"/>
    <trip id="140" depart="1.00" from="22764020#0" to="238699266#1"/>
    <trip id="141" depart="1.00" from="-270025394#2" to="268564488#1"/>
    <trip id="142" depart="1.00" from="243317510#0" to="-60787469#2"/>
    <trip id="143" depart="1.00" from="17496274#2" to="-60787468#0"/>
    <trip id="144" depart="1.00" from="247027461#1" to="23416666#0"/>
    <trip id="145" depart="1.00" from="269789001#3" to="106335692#12"/>
    <trip id="146" depart="1.00" from="238208424#1" to="106335692#9"/>
    <trip id="147" depart="1.00" from="-244456575" to="17496274#1"/>
    <trip id="148" depart="1.00" from="374960473" to="247027471#1"/>
    <trip id="149" depart="1.00" from="249706146#3" to="23416666#0"/>
    <trip id="150" depart="1.00" from="255247886#2" to="264400583#1"/>
    <trip id="151" depart="1.00" from="-334849013" to="-264400583#5"/>
    <trip id="152" depart="1.00" from="-106335692#11" to="243317511#0"/>
    <trip id="153" depart="1.00" from="-29251608#1" to="111811881#5"/>
    <trip id="154" depart="1.00" from="-29251608#1" to="247027457#5"/>
    <trip id="155" depart="1.00" from="133236952#1" to="-334849020#2"/>
    <trip id="156" depart="1.00" from="-106335692#9" to="52513625#3"/>
    <trip id="157" depart="1.00" from="247027457#4" to="255247886#2"/>
    <trip id="158" depart="1.00" from="330804415#1" to="-330804416#1"/>
    <trip id="159" depart="1.00" from="269502155#0" to="-270025394#2"/>
    <trip id="160" depart="1.00" from="60787594#0" to="179000190#1"/>
    <trip id="161" depart="1.00" from="-293207793#1" to="243317510#2"/>
    <trip id="162" depart="1.00" from="133236950#5" to="256186570#0"/>
    <trip id="163" depart="1.00" from="29251608#3" to="269789001#4"/>
    <trip id="164" depart="1.00" from="-269788959#0" to="-238208424#0"/>
    <trip id="165" depart="1.00" from="-60787468#0" to="366116366#1"/>
    <trip id="166" depart="1.00" from="29251608#1" to="52513625#1"/>
    <trip id="167" depart="1.00" from="-24000959#1" to="334852287#2"/>
    <trip id="168" depart="1.00" from="-255247886#0" to="-262844200#0"/>
    <trip id="169" depart="1.00" from="-24000959#2" to="111811938#0"/>
    <trip id="170" depart="1.00" from="264400582#1" to="247027471#5"/>
    <trip id="171" depart="1.00" from="60787468#2" to="60787468#0"/>
    <trip id="172" depart="1.00" from="106335692#7" to="243317512#0"/>
    <trip id="173" depart="1.00" from="60787467#1" to="-330804416#1"/>
    <trip id="174" depart="1.00" from="17496274#0" to="60787468#0"/>
    <trip id="175" depart="1.00" from="269788959#0" to="106335692#11"/>
    <trip id="176" depart="1.00" from="-330804415#2" to="52513625#2"/>
    <trip id="177" depart="1.00" from="238208424#2" to="-269789001#3"/>
    <trip id="178" depart="1.00" from="425376583#1" to="401377039#2"/>
    <trip id="179" depart="1.00" from="-106335692#4" to="269788952#4"/>
    <trip id="180" depart="1.00" from="312929522#0" to="317410455"/>
    <trip id="181" depart="1.00" from="268564487#0" to="-106335692#11"/>
    <trip id="182" depart="1.00" from="269502155#0" to="268564472#3"/>
    <trip id="183" depart="1.00" from="293207793#1" to="52513625#0"/>
    <trip id="184" depart="1.00" from="269788952#1" to="133236950#3"/>
    <trip id="185" depart="1.00" from="303413199#6" to="-264400583#1"/>
    <trip id="186" depart="1.00" from="270025399#1" to="29251608#1"/>
    <trip id="187" depart="1.00" from="246651383#2" to="443580489#1"/>
    <trip id="188" depart="1.00" from="106335692#11" to="22764012#1"/>
    <trip id="189" depart="1.00" from="425376583#1" to="51919245#0"/>
    <trip id="190" depart="1.00" from="247027462#0" to="-244456576#0"/>
    <trip id="191" depart="1.00" from="17496274#2" to="262844198#0"/>
    <trip id="192" depart="1.00" from="-330804415#2" to="247027454#4"/>
    <trip id="193" depart="1.00" from="106335692#9" to="238208422"/>
    <trip id="194" depart="1.00" from="-269789001#4" to="24000959#5"/>
    <trip id="195" depart="1.00" from="286098898#1" to="244450484#1"/>
    <trip id="196" depart="1.00" from="238208424#1" to="133236950#5"/>
    <trip id="197" depart="1.00" from="334852287#2" to="247027471#5"/>
    <trip id="198" depart="1.00" from="-330804415#2" to="256186582#2"/>
    <trip id="199" depart="1.00" from="326969436#1" to="-264400583#8"/>
    <trip id="200" depart="2.00" from="264400582#2" to="238208422"/>
    <trip id="201" depart="2.00" from="425376583#1" to="268564488#1"/>
    <trip id="202" depart="2.00" from="247027471#1" to="-106335692#7"/>
    <trip id="203" depart="2.00" from="29251608#1" to="330804415#1"/>
    <trip id="204" depart="2.00" from="-244509935#1" to="-106335692#11"/>
    <trip id="205" depart="2.00" from="-244456576#0" to="-244456576#0"/>
    <trip id="206" depart="2.00" from="-106335692#11" to="268564472#4"/>
    <trip id="207" depart="2.00" from="334849012" to="-330804416#1"/>
    <trip id="208" depart="2.00" from="269502155#1" to="268564471#2"/>
    <trip id="209" depart="2.00" from="106335692#9" to="293207793#1"/>
    <trip id="210" depart="2.00" from="312929522#4" to="247027452#0"/>
    <trip id="211" depart="2.00" from="106335692#7" to="106335692#8"/>
    <trip id="212" depart="2.00" from="-256186579#1" to="256186570#1"/>
    <trip id="213" depart="2.00" from="247027461#2" to="330804415#2"/>
    <trip id="214" depart="2.00" from="269502155#0" to="270025394#2"/>
    <trip id="215" depart="2.00" from="247027453#6" to="-197315982"/>
    <trip id="216" depart="2.00" from="-60787468#0" to="256186570#0"/>
    <trip id="217" depart="2.00" from="-269788958#1" to="247027471#5"/>
    <trip id="218" depart="2.00" from="198582308#2" to="244407979#0"/>
    <trip id="219" depart="2.00" from="269788952#5" to="-269788952#2"/>
    <trip id="220" depart="2.00" from="-264400583#8" to="366116371"/>
    <trip id="221" depart="2.00" from="29395277#1" to="111811881#2"/>
    <trip id="222" depart="2.00" from="-255247886#0" to="60793231"/>
    <trip id="223" depart="2.00" from="51919245#0" to="-264400583#2"/>
    <trip id="224" depart="2.00" from="312929530#1" to="-262844198#0"/>
    <trip id="225" depart="2.00" from="286098898#1" to="289004422#1"/>
    <trip id="226" depart="2.00" from="-247027466" to="238208422"/>
    <trip id="227" depart="2.00" from="334852287#0" to="-269788952#4"/>
    <trip id="228" depart="2.00" from="-246651378#0" to="133236950#5"/>
    <trip id="229" depart="2.00" from="24000959#6" to="105496781#1"/>
    <trip id="230" depart="2.00" from="106335692#2" to="29044036#1"/>
    <trip id="231" depart="2.00" from="197315982" to="238208424#2"/>
    <trip id="232" depart="2.00" from="247027457#4" to="244407979#3"/>
    <trip id="233" depart="2.00" from="60787474#2" to="268564472#2"/>
    <trip id="234" depart="2.00" from="-270025401#1" to="247027452#0"/>
    <trip id="235" depart="2.00" from="229885663#1" to="60787468#0"/>
    <trip id="236" depart="2.00" from="-269789001#1" to="22764020#1"/>
    <trip id="237" depart="2.00" from="238208424#2" to="-255247886#1"/>
    <trip id="238" depart="2.00" from="268564472#2" to="293207793#2"/>
    <trip id="239" depart="2.00" from="-269788959#2" to="60793231"/>
    <trip id="240" depart="2.00" from="264400582#0" to="238699263#3"/>
    <trip id="241" depart="2.00" from="111811881#4" to="-268564488#1"/>
    <trip id="242" depart="2.00" from="270025394#0" to="229885663#1"/>
    <trip id="243" depart="2.00" from="312929530#1" to="256186572#1"/>
    <trip id="244" depart="2.00" from="286098900#1" to="247027457#1"/>
    <trip id="245" depart="2.00" from="-246651378#0" to="269788952#5"/>
    <trip id="246" depart="2.00" from="270025399#2" to="-268564488#1"/>
    <trip id="247" depart="2.00" from="268564486#0" to="247027452#0"/>
    <trip id="248" depart="2.00" from="333293972#0" to="17496274#1"/>
    <trip id="249" depart="2.00" from="-179000190#0" to="249706146#0"/>
    <trip id="250" depart="2.00" from="247027461#0" to="60787468#4"/>
    <trip id="251" depart="2.00" from="106335692#2" to="197662927#1"/>
    <trip id="252" depart="2.00" from="29395277#2" to="269788952#5"/>
    <trip id="253" depart="2.00" from="270025401#1" to="401377039#1"/>
    <trip id="254" depart="2.00" from="279397395" to="247027454#0"/>
    <trip id="255" depart="2.00" from="247027452#0" to="247027467"/>
    <trip id="256" depart="2.00" from="106335692#11" to="256186570#0"/>
    <trip id="257" depart="2.00" from="17496274#1" to="-269788952#1"/>
    <trip id="258" depart="2.00" from="468047666" to="243317511#1"/>
    <trip id="259" depart="2.00" from="24000959#1" to="247027467"/>
    <trip id="260" depart="2.00" from="133236952#0" to="286098898#1"/>
    <trip id="261" depart="2.00" from="334852287#2" to="52513625#1"/>
    <trip id="262" depart="2.00" from="334849020#0" to="238211713#1"/>
    <trip id="263" depart="2.00" from="23416666#0" to="286098898#1"/>
    <trip id="264" depart="2.00" from="255247886#2" to="-268564487#0"/>
    <trip id="265" depart="2.00" from="243317511#1" to="256186570#1"/>
    <trip id="266" depart="2.00" from="60787468#0" to="-255247886#2"/>
    <trip id="267" depart="2.00" from="-106335692#3" to="268564472#1"/>
    <trip id="268" depart="2.00" from="334849013" to="-269789001#1"/>
    <trip id="269" depart="2.00" from="17496274#1" to="60787468#4"/>
    <trip id="270" depart="2.00" from="133236952#3" to="-256186579#2"/>
    <trip id="271" depart="2.00" from="-269788952#2" to="29251608#1"/>
    <trip id="272" depart="2.00" from="17496274#1" to="317410455"/>
    <trip id="273" depart="2.00" from="243317512#1" to="-256186579#4"/>
    <trip id="274" depart="2.00" from="247027467" to="29395277#1"/>
    <trip id="275" depart="2.00" from="-264400583#2" to="264400583#8"/>
    <trip id="276" depart="2.00" from="-269788952#2" to="247027456"/>
    <trip id="277" depart="2.00" from="29395277#1" to="286098898#1"/>
    <trip id="278" depart="2.00" from="247027453#1" to="-312929522#4"/>
    <trip id="279" depart="2.00" from="-268564488#1" to="269788955#10"/>
    <trip id="280" depart="2.00" from="-256186579#4" to="23416666#0"/>
    <trip id="281" depart="2.00" from="270025385#1" to="-334849020#0"/>
    <trip id="282" depart="2.00" from="334852287#1" to="247027457#2"/>
    <trip id="283" depart="2.00" from="269478660#0" to="330804416#1"/>
    <trip id="284" depart="2.00" from="-268564487#0" to="29251608#1"/>
    <trip id="285" depart="2.00" from="269788959#0" to="106335692#9"/>
    <trip id="286" depart="2.00" from="468047666" to="247027457#4"/>
    <trip id="287" depart="2.00" from="468047666" to="-106335692#9"/>
    <trip id="288" depart="2.00" from="-106335692#2" to="198582308#2"/>
    <trip id="289" depart="2.00" from="-22764012#0" to="247027457#4"/>
    <trip id="290" depart="2.00" from="286098900#1" to="-106335692#9"/>
    <trip id="291" depart="2.00" from="264400583#8" to="247027457#1"/>
    <trip id="292" depart="2.00" from="269789001#1" to="256186582#2"/>
    <trip id="293" depart="2.00" from="-270025400#0" to="269789001#2"/>
    <trip id="294" depart="2.00" from="238208424#2" to="-330804416#1"/>
    <trip id="295" depart="2.00" from="197662927#1" to="160279691#2"/>
    <trip id="296" depart="2.00" from="-29251608#1" to="-256263215#1"/>
    <trip id="297" depart="2.00" from="-106335692#3" to="106335692#7"/>
    <trip id="298" depart="2.00" from="29395277#1" to="244456576#0"/>
    <trip id="299" depart="2.00" from="-268564487#0" to="-24000959#6"/>
    <trip id="300" depart="3.00" from="247027454#4" to="286098898#2"/>
    <trip id="301" depart="3.00" from="238699266#1" to="-334849020#0"/>
    <trip id="302" depart="3.00" from="-270025400#1" to="-262844200#0"/>
    <trip id="303" depart="3.00" from="-270025399#1" to="247027457#1"/>
    <trip id="304" depart="3.00" from="262844198#0" to="270025399#1"/>
    <trip id="305" depart="3.00" from="247027454#4" to="255431340#1"/>
    <trip id="306" depart="3.00" from="17496274#2" to="243317511#1"/>
    <trip id="307" depart="3.00" from="17496274#1" to="-255247886#1"/>
    <trip id="308" depart="3.00" from="-312929530#1" to="82392154"/>
    <trip id="309" depart="3.00" from="247027471#1" to="247027452#0"/>
    <trip id="310" depart="3.00" from="247027471#1" to="-312929522#1"/>
    <trip id="311" depart="3.00" from="-270025399#1" to="-238208424#1"/>
    <trip id="312" depart="3.00" from="247027452#0" to="-264400583#6"/>
    <trip id="313" depart="3.00" from="334849011" to="-60787468#4"/>
    <trip id="314" depart="3.00" from="17496274#0" to="-244456575"/>
    <trip id="315" depart="3.00" from="-106335692#7" to="-269789001#3"/>
    <trip id="316" depart="3.00" from="270025401#1" to="269788955#9"/>
    <trip id="317" depart="3.00" from="268564488#1" to="401377039#2"/>
    <trip id="318" depart="3.00" from="-334849020#1" to="-334849020#0"/>
    <trip id="319" depart="3.00" from="247027471#3" to="-256263215#1"/>
    <trip id="320" depart="3.00" from="-270025399#1" to="269788955#5"/>
    <trip id="321" depart="3.00" from="247027454#1" to="22764020#3"/>
    <trip id="322" depart="3.00" from="279397395" to="317410455"/>
    <trip id="323" depart="3.00" from="111811938#0" to="-264400583#6"/>
    <trip id="324" depart="3.00" from="-60787468#2" to="243317510#2"/>
    <trip id="325" depart="3.00" from="289004422#1" to="52513625#0"/>
    <trip id="326" depart="3.00" from="247027456" to="-247027455#2"/>
    <trip id="327" depart="3.00" from="-264400583#6" to="238208422"/>
    <trip id="328" depart="3.00" from="255247886#1" to="22764012#0"/>
    <trip id="329" depart="3.00" from="-197664859#1" to="244456576#0"/>
    <trip id="330" depart="3.00" from="333293972#0" to="247027461#2"/>
    <trip id="331" depart="3.00" from="-106335692#7" to="330804415#1"/>
    <trip id="332" depart="3.00" from="52513625#1" to="268564472#2"/>
    <trip id="333" depart="3.00" from="29251608#1" to="-268564488#2"/>
    <trip id="334" depart="3.00" from="-269789001#1" to="401377039#2"/>
    <trip id="335" depart="3.00" from="-269788959#1" to="82392154"/>
    <trip id="336" depart="3.00" from="-24000959#6" to="-269789001#2"/>
    <trip id="337" depart="3.00" from="111811881#1" to="-24000959#6"/>
    <trip id="338" depart="3.00" from="269788955#7" to="-312929522#0"/>
    <trip id="339" depart="3.00" from="-106335692#7" to="326969436#1"/>
    <trip id="340" depart="3.00" from="238208424#2" to="247027467"/>
    <trip id="341" depart="3.00" from="247027464#0" to="60787468#0"/>
    <trip id="342" depart="3.00" from="303413199#6" to="289004422#1"/>
    <trip id="343" depart="3.00" from="334852287#1" to="-60787469#0"/>
    <trip id="344" depart="3.00" from="247027461#0" to="198582308#2"/>
    <trip id="345" depart="3.00" from="-269788959#2" to="-312929522#0"/>
    <trip id="346" depart="3.00" from="293207793#0" to="-269788952#2"/>
    <trip id="347" depart="3.00" from="-264400583#7" to="60793231"/>
    <trip id="348" depart="3.00" from="270025400#0" to="401377039#2"/>
    <trip id="349" depart="3.00" from="17496274#1" to="-269789001#1"/>
    <trip id="350" depart="3.00" from="-268564488#1" to="268564472#1"/>
    <trip id="351" depart="3.00" from="247027471#1" to="-334849020#0"/>
    <trip id="352" depart="3.00" from="279397395" to="334849020#2"/>
    <trip id="353" depart="3.00" from="247027454#4" to="326969436#1"/>
    <trip id="354" depart="3.00" from="256186570#0" to="243317510#2"/>
    <trip id="355" depart="3.00" from="243317509" to="-60787468#1"/>
    <trip id="356" depart="3.00" from="-60787468#4" to="133236950#3"/>
    <trip id="357" depart="3.00" from="269788959#2" to="22764020#1"/>
    <trip id="358" depart="3.00" from="249706146#0" to="256186572#1"/>
    <trip id="359" depart="3.00" from="264400583#8" to="-269788959#0"/>
    <trip id="360" depart="3.00" from="17496274#0" to="22764020#1"/>
    <trip id="361" depart="3.00" from="-24000959#1" to="-29251608#1"/>
    <trip id="362" depart="3.00" from="264400583#8" to="60787472"/>
    <trip id="363" depart="3.00" from="17496274#1" to="268564487#0"/>
    <trip id="364" depart="3.00" from="24006848" to="401377039#2"/>
    <trip id="365" depart="3.00" from="29395277#2" to="243317511#1"/>
    <trip id="366" depart="3.00" from="60787469#0" to="269502157#2"/>
    <trip id="367" depart="3.00" from="366116366#1" to="247027453#0"/>
    <trip id="368" depart="3.00" from="-106335692#4" to="268564472#1"/>
    <trip id="369" depart="3.00" from="-293207793#1" to="255431340#1"/>
    <trip id="370" depart="3.00" from="-268564487#0" to="106335692#2"/>
    <trip id="371" depart="3.00" from="-268564487#0" to="264400583#6"/>
    <trip id="372" depart="3.00" from="-293207793#1" to="-238208424#2"/>
    <trip id="373" depart="3.00" from="269788952#5" to="243317512#1"/>
    <trip id="374" depart="3.00" from="-262844200#0" to="106335692#6"/>
    <trip id="375" depart="3.00" from="247027454#4" to="-270025401#1"/>
    <trip id="376" depart="3.00" from="256186570#2" to="-334849020#0"/>
    <trip id="377" depart="3.00" from="-229885663#1" to="334849012"/>
    <trip id="378" depart="3.00" from="60787467#2" to="-106335692#9"/>
    <trip id="379" depart="3.00" from="246651378#0" to="-269788959#2"/>
    <trip id="380" depart="3.00" from="29395277#1" to="51919245#0"/>
    <trip id="381" depart="3.00" from="-106335692#12" to="247027456"/>
    <trip id="382" depart="3.00" from="303413199#6" to="-22764012#0"/>
    <trip id="383" depart="3.00" from="268564471#1" to="106335692#12"/>
    <trip id="384" depart="3.00" from="244407979#3" to="-264400583#8"/>
    <trip id="385" depart="3.00" from="247027457#3" to="52513625#0"/>
    <trip id="386" depart="3.00" from="60787468#4" to="133236950#5"/>
    <trip id="387" depart="3.00" from="249706146#3" to="22764020#1"/>
    <trip id="388" depart="3.00" from="247027454#4" to="-269788958#0"/>
    <trip id="389" depart="3.00" from="247027454#4" to="60787468#4"/>
    <trip id="390" depart="3.00" from="326969436#1" to="270025385#1"/>
    <trip id="391" depart="3.00" from="133236950#5" to="-334849020#1"/>
    <trip id="392" depart="3.00" from="-293207793#1" to="17496274#1"/>
    <trip id="393" depart="3.00" from="256186570#2" to="244456575"/>
    <trip id="394" depart="3.00" from="106335692#9" to="268564488#1"/>
    <trip id="395" depart="3.00" from="106335692#7" to="29251608#1"/>
    <trip id="396" depart="3.00" from="22764020#1" to="334849012"/>
    <trip id="397" depart="3.00" from="22764020#1" to="264400582#1"/>
    <trip id="398" depart="3.00" from="29251608#1" to="244450484#1"/>
    <trip id="399" depart="3.00" from="-106335692#4" to="238699263#1"/>
    <trip id="400" depart="4.00" from="17496274#0" to="244509952"/>
    <trip id="401" depart="4.00" from="269788959#0" to="243317511#0"/>
    <trip id="402" depart="4.00" from="268564470#0" to="60787469#2"/>
    <trip id="403" depart="4.00" from="17496274#1" to="-106335692#11"/>
    <trip id="404" depart="4.00" from="334849020#2" to="-262844200#0"/>
    <trip id="405" depart="4.00" from="268564472#2" to="243317512#1"/>
    <trip id="406" depart="4.00" from="243317509" to="179000190#0"/>
    <trip id="407" depart="4.00" from="334849012" to="-106335692#9"/>
    <trip id="408" depart="4.00" from="-238208422" to="312929530#1"/>
    <trip id="409" depart="4.00" from="249706146#3" to="312929530#1"/>
    <trip id="410" depart="4.00" from="286098898#1" to="268564488#1"/>
    <trip id="411" depart="4.00" from="-29251608#1" to="270025394#2"/>
    <trip id="412" depart="4.00" from="333293972#0" to="60787469#0"/>
    <trip id="413" depart="4.00" from="255247886#1" to="244450484#1"/>
    <trip id="414" depart="4.00" from="244456576#1" to="238211712#1"/>
    <trip id="415" depart="4.00" from="179000190#0" to="238699263#0"/>
    <trip id="416" depart="4.00" from="-29251608#1" to="82392154"/>
    <trip id="417" depart="4.00" from="-238208422" to="268564472#2"/>
    <trip id="418" depart="4.00" from="268564488#1" to="198582308#2"/>
    <trip id="419" depart="4.00" from="243317512#0" to="111811881#4"/>