<?xml version="1.0"?>
<!-- generated on 2017-10-06 22:07:24.671000 by $Id: randomTrips.py 23999 2017-04-21 09:04:47Z behrisch $
  options: -n map.net.xml -r map.rou.xml -e 200 -l
-->
<routes xmlns:xsi="http://www.w3.org/2001/XMLSchema-instance" xsi:noNamespaceSchemaLocation="http://sumo.dlr.de/xsd/routes_file.xsd">
    <trip id="0" depart="0.00" from="334852287#1" to="333279726"/>
    <trip id="1" depart="0.00" from="468047666" to="-255247886#0"/>
    <trip id="2" depart="0.00" from="269502155#0" to="247027452#0"/>
    <trip id="3" depart="0.00" from="247027452#0" to="23416666#1"/>
    <trip id="4" depart="0.00" from="24000959#7" to="-269478660#0"/>
    <trip id="5" depart="0.00" from="-60787468#0" to="268564471#1"/>
    <trip id="6" depart="0.00" from="111811881#4" to="-330804416#1"/>
    <trip id="7" depart="0.00" from="-269789001#3" to="-106335692#7"/>
    <trip id="8" depart="0.00" from="270025394#0" to="401377039#2"/>
    <trip id="9" depart="0.00" from="269788959#0" to="229885663#1"/>
    <trip id="10" depart="0.00" from="243317512#1" to="-179000190#0"/>
    <trip id="11" depart="0.00" from="-262844198#0" to="264400582#2"/>
    <trip id="12" depart="0.00" from="244456575" to="269502155#1"/>
    <trip id="13" depart="0.00" from="264400583#8" to="243317511#0"/>
    <trip id="14" depart="0.00" from="22764020#1" to="244407979#2"/>
    <trip id="15" depart="0.00" from="-330804415#2" to="249706146#3"/>
    <trip id="16" depart="0.00" from="60787469#0" to="-256263215#1"/>
    <trip id="17" depart="0.00" from="244456575" to="238699263#2"/>
    <trip id="18" depart="0.00" from="-268564487#0" to="468047666"/>
    <trip id="19" depart="0.00" from="-247027455#2" to="60787472"/>
    <trip id="20" depart="0.00" from="-269789001#6" to="51919245#0"/>
    <trip id="21" depart="0.00" from="22764020#1" to="269788959#2"/>
    <trip id="22" depart="0.00" from="111811938#0" to="-264400583#8"/>
    <trip id="23" depart="0.00" from="264400583#8" to="-238208424#2"/>
    <trip id="24" depart="0.00" from="317410455" to="179000190#0"/>
    <trip id="25" depart="0.00" from="-330804415#1" to="238699263#3"/>
    <trip id="26" depart="0.00" from="60787468#4" to="22764020#1"/>
    <trip id="27" depart="0.00" from="-264400583#8" to="22764020#1"/>
    <trip id="28" depart="0.00" from="243317510#2" to="229885663#1"/>
    <trip id="29" depart="0.00" from="264400583#6" to="51919245#1"/>
    <trip id="30" depart="0.00" from="269789001#3" to="51919245#0"/>
    <trip id="31" depart="0.00" from="312929522#4" to="268564486#0"/>
    <trip id="32" depart="0.00" from="247027454#4" to="268564488#1"/>
    <trip id="33" depart="0.00" from="133236950#1" to="238208424#2"/>
    <trip id="34" depart="0.00" from="256186570#0" to="-269788958#0"/>
    <trip id="35" depart="0.00" from="22764020#1" to="-256263215#1"/>
    <trip id="36" depart="0.00" from="262844198#0" to="-29251608#1"/>
    <trip id="37" depart="0.00" from="312929522#4" to="-330804415#1"/>
    <trip id="38" depart="0.00" from="264400583#8" to="82392154"/>
    <trip id="39" depart="0.00" from="17496274#1" to="247027453#1"/>
    <trip id="40" depart="0.00" from="334849020#0" to="-179000190#0"/>
    <trip id="41" depart="0.00" from="264400582#2" to="374960473"/>
    <trip id="42" depart="0.00" from="24000959#5" to="-334849020#0"/>
    <trip id="43" depart="0.00" from="468047666" to="243317512#0"/>
    <trip id="44" depart="0.00" from="247027454#4" to="23416666#0"/>
    <trip id="45" depart="0.00" from="334849012" to="247027452#0"/>
    <trip id="46" depart="0.00" from="22764020#1" to="106335692#2"/>
    <trip id="47" depart="0.00" from="256186579#2" to="425376583#1"/>
    <trip id="48" depart="0.00" from="269478660#0" to="22764012#1"/>
    <trip id="49" depart="0.00" from="17496274#1" to="247027454#4"/>
    <trip id="50" depart="0.00" from="60787468#0" to="-330804415#2"/>
    <trip id="51" depart="0.00" from="-262844198#0" to="268564471#1"/>
    <trip id="52" depart="0.00" from="247027471#5" to="268564472#3"/>
    <trip id="53" depart="0.00" from="289609880" to="232326530#1"/>
    <trip id="54" depart="0.00" from="333293972#0" to="247027457#2"/>
    <trip id="55" depart="0.00" from="270025383" to="198582308#2"/>
    <trip id="56" depart="0.00" from="334849020#0" to="279397395"/>
    <trip id="57" depart="0.00" from="312929530#1" to="-29251608#1"/>
    <trip id="58" depart="0.00" from="-312929522#4" to="-334849020#0"/>
    <trip id="59" depart="0.00" from="-334849020#2" to="244509935#1"/>
    <trip id="60" depart="0.00" from="-106335692#4" to="264400583#6"/>
    <trip id="61" depart="0.00" from="238699263#2" to="247027452#0"/>
    <trip id="62" depart="0.00" from="303413199#5" to="247027457#1"/>
    <trip id="63" depart="0.00" from="256186572#1" to="286098898#1"/>
    <trip id="64" depart="0.00" from="247027454#4" to="326969436#1"/>
    <trip id="65" depart="0.00" from="244407979#3" to="269789001#2"/>
    <trip id="66" depart="0.00" from="255247886#0" to="334852287#1"/>
    <trip id="67" depart="0.00" from="-270025400#2" to="-29251608#1"/>
    <trip id="68" depart="0.00" from="247027454#4" to="238699263#0"/>
    <trip id="69" depart="0.00" from="244407979#3" to="286098900#1"/>
    <trip id="70" depart="0.00" from="249706146#2" to="262844200#0"/>
    <trip id="71" depart="0.00" from="268564488#1" to="238699266#1"/>
    <trip id="72" depart="0.00" from="256263215#1" to="52513625#3"/>
    <trip id="73" depart="0.00" from="-264400583#1" to="249706146#3"/>
    <trip id="74" depart="0.00" from="-238208422" to="-256186582#0"/>
    <trip id="75" depart="0.00" from="269788959#0" to="-60787468#0"/>
    <trip id="76" depart="0.00" from="106335692#11" to="334849011"/>
    <trip id="77" depart="0.00" from="24000959#1" to="24006848"/>
    <trip id="78" depart="0.00" from="17496274#1" to="-270025401#1"/>
    <trip id="79" depart="0.00" from="268564487#0" to="330804415#1"/>
    <trip id="80" depart="0.00" from="-106335692#11" to="111811881#2"/>
    <trip id="81" depart="0.00" from="29251608#1" to="256186572#1"/>
    <trip id="82" depart="0.00" from="-238208424#1" to="-256186582#0"/>
    <trip id="83" depart="0.00" from="269502157#1" to="197315982"/>
    <trip id="84" depart="0.00" from="249706146#3" to="401377039#2"/>
    <trip id="85" depart="0.00" from="269788959#0" to="-106335692#2"/>
    <trip id="86" depart="0.00" from="29395277#1" to="268564472#3"/>
    <trip id="87" depart="0.00" from="-268564488#1" to="334852287#1"/>
    <trip id="88" depart="0.00" from="-270025394#2" to="60787469#2"/>
    <trip id="89" depart="0.00" from="247027457#4" to="247027471#5"/>
    <trip id="90" depart="0.00" from="247027454#4" to="269788952#1"/>
    <trip id="91" depart="0.00" from="247027453#1" to="-279397395"/>
    <trip id="92" depart="0.00" from="289609880" to="160279691#1"/>
    <trip id="93" depart="0.00" from="133236950#3" to="-268564487#0"/>
    <trip id="94" depart="0.00" from="106335692#3" to="-60787468#2"/>
    <trip id="95" depart="0.00" from="238211712#1" to="82392154"/>
    <trip id="96" depart="0.00" from="238699266#1" to="269502157#2"/>
    <trip id="97" depart="0.00" from="-60787469#0" to="-244509935#1"/>
    <trip id="98" depart="0.00" from="106335692#4" to="-29251608#1"/>
    <trip id="99" depart="0.00" from="289609880" to="269788952#2"/>
    <trip id="100" depart="1.00" from="197662927#0" to="255431340#1"/>
    <trip id="101" depart="1.00" from="270025385#1" to="-29251608#1"/>
    <trip id="102" depart="1.00" from="293207793#1" to="-60787469#0"/>
    <trip id="103" depart="1.00" from="-270025401#1" to="303413199#1"/>
    <trip id="104" depart="1.00" from="333293972#0" to="-334849020#0"/>
    <trip id="105" depart="1.00" from="286098898#1" to="111811881#1"/>
    <trip id="106" depart="1.00" from="297240248" to="286098898#1"/>
    <trip id="107" depart="1.00" from="268564486#0" to="286098898#1"/>
    <trip id="108" depart="1.00" from="334849011" to="82392154"/>
    <trip id="109" depart="1.00" from="270025400#0" to="52513625#3"/>
    <trip id="110" depart="1.00" from="-229885663#1" to="268564488#1"/>
    <trip id="111" depart="1.00" from="247027457#2" to="268564486#0"/>
    <trip id="112" depart="1.00" from="247027454#4" to="-293207793#1"/>
    <trip id="113" depart="1.00" from="60787469#2" to="29251608#1"/>
    <trip id="114" depart="1.00" from="-279397395" to="29395277#2"/>
    <trip id="115" depart="1.00" from="-270025400#2" to="-244456576#0"/>
    <trip id="116" depart="1.00" from="425376583#1" to="243317510#2"/>
    <trip id="117" depart="1.00" from="270025399#1" to="-269789001#1"/>
    <trip id="118" depart="1.00" from="-425376584" to="264400582#1"/>
    <trip id="119" depart="1.00" from="268564472#1" to="443580489#0"/>
    <trip id="120" depart="1.00" from="249706146#2" to="326969436#1"/>
    <trip id="121" depart="1.00" from="255247886#0" to="-334849020#0"/>
    <trip id="122" depart="1.00" from="269502157#1" to="238699266#1"/>
    <trip id="123" depart="1.00" from="255247886#1" to="238699263#2"/>
    <trip id="124" depart="1.00" from="29044036#1" to="401377039#2"/>
    <trip id="125" depart="1.00" from="264400583#6" to="247027471#1"/>
    <trip id="126" depart="1.00" from="17496274#1" to="255247886#1"/>
    <trip id="127" depart="1.00" from="243317510#1" to="238699266#1"/>
    <trip id="128" depart="1.00" from="-60787468#2" to="-106335692#2"/>
    <trip id="129" depart="1.00" from="-179000190#0" to="264400583#6"/>
    <trip id="130" depart="1.00" from="247027454#5" to="-29251608#1"/>
    <trip id="131" depart="1.00" from="197315982" to="270025400#2"/>
    <trip id="132" depart="1.00" from="256186570#1" to="-269788959#0"/>
    <trip id="133" depart="1.00" from="-312929522#4" to="-179000190#1"/>
    <trip id="134" depart="1.00" from="247027454#4" to="268564488#1"/>
    <trip id="135" depart="1.00" from="246651378#0" to="-255247886#1"/>
    <trip id="136" depart="1.00" from="330804416#1" to="-334849020#0"/>
    <trip id="137" depart="1.00" from="334852287#2" to="247027471#3"/>
    <trip id="138" depart="1.00" from="247027461#2" to="-60787474#1"/>
    <trip id="139" depart="1.00" from="-312929522#4" to="106335692#7"/>
    <trip id="140" depart="1.00" from="111811881#4" to="243317512#1"/>
    <trip id="141" depart="1.00" from="24006848" to="247027455#2"/>
    <trip id="142" depart="1.00" from="179000190#1" to="-106335692#11"/>
    <trip id="143" depart="1.00" from="133236950#5" to="312929522#0"/>
    <trip id="144" depart="1.00" from="52513625#1" to="286098898#1"/>
    <trip id="145" depart="1.00" from="106335692#7" to="133236952#0"/>
    <trip id="146" depart="1.00" from="-264400583#1" to="-330804415#1"/>
    <trip id="147" depart="1.00" from="268564487#0" to="-256186579#0"/>
    <trip id="148" depart="1.00" from="269502157#1" to="238699263#2"/>
    <trip id="149" depart="1.00" from="312929522#0" to="52513625#0"/>
    <trip id="150" depart="1.00" from="244456575" to="238211713#1"/>
    <trip id="151" depart="1.00" from="-334849020#1" to="366116366#2"/>
    <trip id="152" depart="1.00" from="-29251608#1" to="-246651378#0"/>
    <trip id="153" depart="1.00" from="334852287#0" to="269788955#10"/>
    <trip id="154" depart="1.00" from="269502155#0" to="51919245#0"/>
    <trip id="155" depart="1.00" from="286098898#1" to="-293207793#1"/>
    <trip id="156" depart="1.00" from="-106335692#2" to="106335692#4"/>
    <trip id="157" depart="1.00" from="269788959#0" to="-60787474#5"/>
    <trip id="158" depart="1.00" from="51919245#0" to="133236950#1"/>
    <trip id="159" depart="1.00" from="232326530#1" to="238699266#1"/>
    <trip id="160" depart="1.00" from="17496274#1" to="106335692#11"/>
    <trip id="161" depart="1.00" from="293207793#1" to="401377039#2"/>
    <trip id="162" depart="1.00" from="330804415#1" to="264400583#8"/>
    <trip id="163" depart="1.00" from="-238208424#1" to="238699266#1"/>
    <trip id="164" depart="1.00" from="198582308#2" to="24006848"/>
    <trip id="165" depart="1.00" from="243317510#2" to="22764020#1"/>
    <trip id="166" depart="1.00" from="289609880" to="238699266#1"/>
    <trip id="167" depart="1.00" from="264400583#1" to="334852287#2"/>
    <trip id="168" depart="1.00" from="334849020#0" to="334849012"/>
    <trip id="169" depart="1.00" from="60787474#2" to="-269788958#0"/>
    <trip id="170" depart="1.00" from="334849020#0" to="-268564488#1"/>
    <trip id="171" depart="1.00" from="247027471#1" to="247027452#0"/>
    <trip id="172" depart="1.00" from="333293972#0" to="269502155#2"/>
    <trip id="173" depart="1.00" from="269789001#7" to="268564488#1"/>
    <trip id="174" depart="1.00" from="243317510#2" to="264400583#8"/>
    <trip id="175" depart="1.00" from="-269789001#6" to="106335692#11"/>
    <trip id="176" depart="1.00" from="-269789001#3" to="23416666#1"/>
    <trip id="177" depart="1.00" from="256186579#1" to="256186572#1"/>
    <trip id="178" depart="1.00" from="247027463#0" to="52513625#3"/>
    <trip id="179" depart="1.00" from="246651383#1" to="247027471#5"/>
    <trip id="180" depart="1.00" from="269502157#1" to="243317509"/>
    <trip id="181" depart="1.00" from="-264400583#8" to="366116371"/>
    <trip id="182" depart="1.00" from="268564472#2" to="22764020#1"/>
    <trip id="183" depart="1.00" from="-269789001#1" to="-268564488#1"/>
    <trip id="184" depart="1.00" from="-238208422" to="-270025394#0"/>
    <trip id="185" depart="1.00" from="303413199#1" to="-268564487#0"/>
    <trip id="186" depart="1.00" from="-330804415#2" to="264400583#8"/>
    <trip id="187" depart="1.00" from="-106335692#4" to="-246651378#0"/>
    <trip id="188" depart="1.00" from="52513625#1" to="238699266#1"/>
    <trip id="189" depart="1.00" from="-264400583#8" to="-264400583#8"/>
    <trip id="190" depart="1.00" from="247027454#4" to="60787469#0"/>
    <trip id="191" depart="1.00" from="111811881#2" to="-22764012#0"/>
    <trip id="192" depart="1.00" from="289004422#1" to="443580489#0"/>
    <trip id="193" depart="1.00" from="-238208424#2" to="-246651378#0"/>
    <trip id="194" depart="1.00" from="-264400583#1" to="-279397395"/>
    <trip id="195" depart="1.00" from="286098898#1" to="269789001#3"/>
    <trip id="196" depart="1.00" from="-238208422" to="111811881#6"/>
    <trip id="197" depart="1.00" from="334849020#0" to="-60787469#0"/>
    <trip id="198" depart="1.00" from="133236950#3" to="334849011"/>
    <trip id="199" depart="1.00" from="60787469#2" to="133236950#5"/>
</routes>
