<?xml version="1.0" encoding="UTF-8"?>

<!-- generated on 08/25/17 13:45:06 by SUMO duarouter Version 0.30.0
<?xml version="1.0" encoding="UTF-8"?>

<configuration xmlns:xsi="http://www.w3.org/2001/XMLSchema-instance" xsi:noNamespaceSchemaLocation="http://sumo.dlr.de/xsd/duarouterConfiguration.xsd">

    <input>
        <net-file value="map.net.xml"/>
        <trip-files value="trips.trips.xml"/>
    </input>

    <output>
        <output-file value="map.rou.xml"/>
    </output>

    <processing>
        <ignore-errors value="true"/>
    </processing>

    <time>
        <begin value="0"/>
        <end value="400.0"/>
    </time>

    <report>
        <no-warnings value="true"/>
        <no-step-log value="true"/>
    </report>

</configuration>
-->

<routes xmlns:xsi="http://www.w3.org/2001/XMLSchema-instance" xsi:noNamespaceSchemaLocation="http://sumo.dlr.de/xsd/routes_file.xsd">
    <vType id="0" vClass="truck" guiShape="truck" maxSpeed="16" minGap="2" color="1,0,0" />
    <vType id="1" vClass="passenger" maxSpeed="16" length="5" minGap="2" />
    <vType id="2" vClass="bicycle" guiShape="bicycle" maxSpeed="6" minGap="2" color="0,255,255"/>
    <vType id="3" vClass="motorcycle" guiShape="motorcycle" maxSpeed="16" minGap="2" color="0,1,0" />

    <vehicle id="0" type="0" depart="0.00">
        <route edges="334849013 243317512#0 243317512#1 60787472 268564470#0 268564470#1 270025385#0 270025385#1 270025385#2 268564471#0 268564471#1 268564471#2 -270025400#3 -270025400#2 -270025400#1 -270025400#0 -22764012#1 -22764012#0 179000190#0 179000190#1 238208424#0 238208424#1 238208424#2 238208424#3 -330804415#2 -330804415#1"/>
    </vehicle>
    <vehicle id="1" type="1" depart="0.00">
        <route edges="111811881#1 111811881#2 111811881#3 111811881#4 111811881#5 111811881#6 -247027466 247027467 197662927#0 197662927#1 247027461#0 247027461#1 247027461#2 255431340#0 255431340#1 268564487#0 268564487#1 270025399#0 270025399#1 270025399#2 312929530#0 312929530#1 -262844198#2 -262844198#1 -262844198#0 -246651378#1 -246651378#0 -270025400#3 -270025400#2 -270025400#1 -270025400#0 -22764012#1 -22764012#0 179000190#0 179000190#1 23416666#0 23416666#1"/>
    </vehicle>
    <vehicle id="2" type="1" depart="0.00">
        <route edges="60787469#2 60787469#3 60787468#4 60787468#5 270025385#0 270025385#1 270025385#2 268564471#0 268564471#1 268564471#2 -270025400#3 -270025400#2 -270025400#1 -270025400#0 -22764012#1 -22764012#0 179000190#0 179000190#1 -179000190#1"/>
    </vehicle>
    <vehicle id="3" type="1" depart="0.00">
        <route edges="29395277#1 29395277#2 468047666 33679533 247027457#0 247027457#1 247027457#2 247027457#3 106335692#11"/>
    </vehicle>
    <vehicle id="4" type="1" depart="0.00">
        <route edges="238211712#1 238211712#2 297240248 269788955#1 269788955#2 269788955#3 269788955#4 269788952#0 269788952#1 269788952#2 269788952#3 269788952#4 269788952#5 269788952#6 244509935#0 244509935#1 287735315 198724107 293207793#0 293207793#1 293207793#2 330804415#0 330804415#1 330804415#2 -238208424#3 -238208424#2 238208424#2"/>
    </vehicle>
    <vehicle id="5" type="1" depart="0.00">
        <route edges="330804415#1 -330804415#1 -330804415#0 -293207793#2 -293207793#1 -293207793#0 -198724107 -287735315 -244509935#1 -244509935#0 -269788952#6 -269788952#5 -269788952#4 -269788952#3 -269788952#2 -269788952#1 -269788952#0 269788955#5 249706146#1 249706146#2 249706146#3 249706146#4 302410364#0 247027454#0 247027454#1 247027454#2 247027454#3 247027454#4 60787594#1 264400583#0 264400583#1 264400583#2 264400583#3 264400583#4 264400583#5 264400583#6 264400583#7 264400583#8"/>
    </vehicle>
    <vehicle id="6" type="1" depart="0.00">
        <route edges="60787468#3 -60787468#3 -60787468#2 270025399#0 270025399#1 270025399#2 -269788959#2 -269788959#1 -269788959#0 -60787474#5 -60787474#4 -60787474#3 -60787474#2 -60787474#1 -60787474#0 -247027455#2 247027454#3 247027454#4"/>
    </vehicle>
    <vehicle id="7" type="1" depart="0.00">
        <route edges="312929530#1 -312929530#1 -312929530#0 -270025399#2 -270025399#1 -270025399#0 -268564487#1 -268564487#0 -255431340#1 -255431340#0 -265001846 -468047667 468047666 247027464#0 247027464#1"/>
    </vehicle>
    <vehicle id="8" type="1" depart="0.00">
        <route edges="29044036#1 374960473 270025400#0 270025400#1 270025400#2 270025400#3 246651378#0 246651378#1 262844198#0 262844198#1 262844198#2 269789001#0 269789001#1 269789001#2 269789001#3 269789001#4 269789001#5 269789001#6 269789001#7 262844200#0 262844200#1 302410364#0 302410364#1 247027471#0 247027471#1 247027471#2 247027471#3 247027471#4 247027471#5 247027471#6 -255680090 -29251608#3 -29251608#2 -29251608#1"/>
    </vehicle>
    <vehicle id="9" type="1" depart="0.00">
        <route edges="255247886#0 255247886#1 255247886#2 -269788952#6 -269788952#5 -269788952#4 -269788952#3 -269788952#2 -269788952#1 -269788952#0 269788955#5 269788955#6 269788955#7 269788955#8 269788955#9 197664859#0 197664859#1"/>
    </vehicle>
    <vehicle id="10" type="1" depart="0.00">
        <route edges="330804415#1 -330804415#1 -330804415#0 -293207793#2 -293207793#1 -293207793#0 269502157#0 269502157#1 269502157#2 317410455 246651378#1 262844198#0 262844198#1 262844198#2 -312929530#1 -312929530#0 -269788959#2 269788959#2"/>
    </vehicle>
    <vehicle id="11" type="1" depart="0.00">
        <route edges="317410455 246651378#1 256186570#0 256186570#1 256186570#2 256186570#3 256186570#4 287735315 198724107 293207793#0 293207793#1 293207793#2 330804415#0 330804415#1 -330804415#1"/>
    </vehicle>
    <vehicle id="12" type="1" depart="0.00">
        <route edges="133236950#5 133236950#6 247027454#0 247027454#1 247027454#2 -247027455#1 -247027455#0 247027453#0 247027453#1 247027453#2 247027453#3 247027453#4 247027453#5 247027453#6"/>
    </vehicle>
    <vehicle id="13" type="1" depart="0.00">
        <route edges="-270025400#1 270025400#1 270025400#2 270025400#3 246651378#0 246651378#1 262844198#0 262844198#1 262844198#2 269789001#0 269789001#1 269789001#2 269789001#3 269789001#4 269789001#5 269789001#6 269789001#7 262844200#0 262844200#1 302410364#0 302410364#1 302410364#2 238211712#0 238211712#1 238211712#2 297240248"/>
    </vehicle>
    <vehicle id="14" type="1" depart="0.00">
        <route edges="-312929522#3 -312929522#2 -312929522#1 -312929522#0 -270025399#2 -270025399#1 -270025399#0 -268564487#1 -268564487#0 24000959#0 24000959#1 24000959#2 24000959#3 24000959#4 24000959#5 24000959#6 24000959#7 24000959#8 246651383#2 246651383#0 60787594#0 60787594#1 264400583#0 264400583#1 264400583#2 264400583#3 264400583#4 264400583#5 256186582#0"/>
    </vehicle>
    <vehicle id="16" type="1" depart="0.00">
        <route edges="-244456575 244456575 334849020#1 334849020#2 334849011 326969436#0 326969436#1 33679533 -247027466 247027456 264400582#0 264400582#1 264400582#2 244407979#0 244407979#1 -247027455#0 133236952#2 133236952#3 133236952#4 238211712#0 238211712#1"/>
    </vehicle>
    <vehicle id="17" type="1" depart="0.00">
        <route edges="256186579#1 -256186582#2 -256186582#1 -256186582#0 -264400583#5 -264400583#4 -264400583#3 -264400583#2 -264400583#1 -264400583#0 264400582#0 264400582#1 264400582#2 244407979#0 244407979#1 -247027455#0 133236952#2 133236952#3 133236952#4 -302410364#2 247027471#0 247027471#1 247027471#2 247027471#3 269788955#2 269788955#3 269788955#4 269788952#0 269788952#1 269788952#2 269788952#3 269788952#4 269788952#5 269788952#6 268564488#0 268564488#1"/>
    </vehicle>
    <vehicle id="18" type="1" depart="0.00">
        <route edges="243317512#0 243317512#1 60787472 268564470#0 268564470#1 270025385#0 270025385#1 270025385#2 268564471#0 268564471#1 268564471#2 246651378#0 246651378#1 256186570#0"/>
    </vehicle>
    <vehicle id="20" type="1" depart="0.00">
        <route edges="366116366#1 366116366#2 366116366#3 334849011 326969436#0 326969436#1 33679533 247027457#0 247027457#1 247027457#2 247027457#3 -106335692#10 111811881#3 111811881#4"/>
    </vehicle>
    <vehicle id="21" type="1" depart="0.00">
        <route edges="247027452#0 247027452#1 247027452#2 247027452#3 247027452#4 247027452#5 133236952#2 133236952#3 133236952#4 -302410364#2 247027471#0 247027471#1 247027471#2 247027471#3 269788955#2 133236950#3"/>
    </vehicle>
    <vehicle id="22" type="1" depart="0.00">
        <route edges="111811881#5 111811881#6 -247027466 247027467 197662927#0 197662927#1 247027461#0 247027461#1 247027461#2 255431340#0 255431340#1 268564487#0 268564487#1 270025399#0 270025399#1 270025399#2 312929530#0 312929530#1 255247886#0 255247886#1 255247886#2 268564488#0 268564488#1 268564488#2 22764020#1"/>
    </vehicle>
    <vehicle id="23" type="1" depart="0.00">
        <route edges="268564471#2 246651378#0 246651378#1 262844198#0 262844198#1 262844198#2 269789001#0 269789001#1 269789001#2 269789001#3 269789001#4 269789001#5 269789001#6 269789001#7 262844200#0 262844200#1 302410364#0 302410364#1 247027471#0 247027471#1 247027471#2 247027471#3 247027471#4 247027471#5 247027471#6 -255680090 -29251608#3 -29251608#2 -29251608#1 -29251608#0"/>
    </vehicle>
    <vehicle id="24" type="1" depart="0.00">
        <route edges="-312929522#0 -269788959#2 -269788959#1 -269788959#0 -60787474#5 -60787474#4 -60787474#3 -60787474#2 -60787474#1 -60787474#0 -247027455#2 -247027455#1 -247027455#0 133236952#2 133236952#3"/>
    </vehicle>
    <vehicle id="25" type="1" depart="0.00">
        <route edges="-279397395 246651378#0 246651378#1 262844198#0 262844198#1 262844198#2 -312929530#1 -312929530#0 -270025399#2 -270025399#1 -270025399#0 60787468#2 60787468#3 270025401#0 270025401#1"/>
    </vehicle>
    <vehicle id="26" type="1" depart="0.00">
        <route edges="60787469#2 60787469#3 -60787468#3 -60787468#2 -268564487#1 -268564487#0 24000959#0 24000959#1 24000959#2 24000959#3 24000959#4 24000959#5 24000959#6 24000959#7 24000959#8 246651383#2 246651383#0 60787594#0 60787594#1 264400582#0 264400582#1 264400582#2 244407979#0 244407979#1"/>
    </vehicle>
    <vehicle id="27" type="1" depart="0.00">
        <route edges="29044036#1 374960473 268564486#0 268564486#1 303413199#0 303413199#1 303413199#2 303413199#3 303413199#4 303413199#5 303413199#6 462399811 105496781#0 105496781#1 366116366#0 366116366#1 366116366#2 366116366#3 160307905#0 160307905#1 334849012"/>
    </vehicle>
    <vehicle id="28" type="1" depart="0.00">
        <route edges="29044036#1 374960473 268564486#0 268564486#1 238699263#0 238699263#1 238699263#2"/>
    </vehicle>
    <vehicle id="29" type="1" depart="0.00">
        <route edges="229885663#1 -229885663#1 -229885663#0 -255247886#0 269789001#0 269789001#1 269789001#2 269789001#3 269789001#4 269789001#5 269789001#6 269789001#7 262844200#0 262844200#1 302410364#0 247027454#0 247027454#1 247027454#2 -247027455#1 -247027455#0 247027453#0 247027453#1 247027453#2 106335692#1 106335692#2 106335692#3 106335692#4 106335692#5 -256186579#5 -256186579#4 256186579#4"/>
    </vehicle>
    <vehicle id="30" type="1" depart="0.00">
        <route edges="334849013 243317512#0 243317512#1 60787472 268564470#0 268564470#1 270025385#0 270025385#1 270025385#2 268564471#0 268564471#1 268564471#2 -270025400#3 -270025400#2 -270025400#1 -270025400#0 -22764012#1 -22764012#0 179000190#0 179000190#1 238208424#0 238208424#1 238208424#2 238208424#3 -330804415#2 -330804415#1"/>
    </vehicle>
    <vehicle id="31" type="1" depart="0.00">
        <route edges="268564471#2 246651378#0 246651378#1 262844198#0 262844198#1 262844198#2 -312929530#1 -312929530#0 -270025399#2 -270025399#1 -270025399#0 -60787468#1 -60787468#0"/>
    </vehicle>
    <vehicle id="32" type="1" depart="0.00">
        <route edges="256186572#1 -198724107 -287735315 -244509935#1 -244509935#0 -269788952#6 -269788952#5 -269788952#4 -269788952#3 -269788952#2 -269788952#1 -269788952#0 269788955#5 249706146#1 249706146#2 249706146#3 249706146#4 302410364#0 247027454#0 247027454#1 247027454#2 247027454#3 247027454#4"/>
    </vehicle>
    <vehicle id="33" type="1" depart="0.00">
        <route edges="-262844200#0 -269789001#7 -269789001#6 -269789001#5 -269789001#4 -269789001#3 -269789001#2 -269789001#1 -269789001#0 -262844198#2 -262844198#1 -262844198#0 256186570#0 256186570#1 256186570#2 256186570#3 256186570#4 287735315 198724107 293207793#0 293207793#1 293207793#2 330804415#0 330804415#1 -330804415#1"/>
    </vehicle>
    <vehicle id="35" type="1" depart="0.00">
        <route edges="246651378#0 -246651378#0 279397395 269478660#0 -269478660#0"/>
    </vehicle>
    <vehicle id="36" type="1" depart="0.00">
        <route edges="264400583#2 -264400583#2 -264400583#1 -264400583#0 264400582#0 264400582#1 264400582#2 244407979#0 244407979#1 244407979#2 244407979#3"/>
    </vehicle>
    <vehicle id="37" type="1" depart="0.00">
        <route edges="-269788952#2 -269788952#1 -269788952#0 269788955#5 249706146#1 249706146#2 249706146#3 249706146#4 302410364#0 247027454#0 247027454#1 247027454#2 -247027455#1 -247027455#0 247027453#0 247027453#1 247027453#2 -106335692#0 247027452#3"/>
    </vehicle>
    <vehicle id="38" type="1" depart="0.00">
        <route edges="334849013 243317512#0 243317512#1 60787472 268564470#0 268564470#1 270025385#0 270025385#1 270025385#2 268564471#0 268564471#1 268564471#2 -270025400#3 -270025400#2 -270025400#1 -270025400#0 -22764012#1 -22764012#0 179000190#0 179000190#1 238208424#0 238208424#1 238208424#2 238208424#3 -330804415#2 -330804415#1"/>
    </vehicle>
    <vehicle id="39" type="1" depart="0.00">
        <route edges="269788952#2 269788952#3 269788952#4 269788952#5 269788952#6 244509935#0 244509935#1 287735315 198724107 269502157#0 269502157#1 269502157#2 317410455 -246651378#0 -270025400#3 -270025400#2 -270025400#1 -270025400#0 268564486#0 268564486#1 303413199#0 303413199#1 303413199#2 303413199#3 303413199#4 303413199#5 232326530#1 268564472#0 268564472#1 -197315982"/>
    </vehicle>
    <vehicle id="41" type="1" depart="0.00">
        <route edges="133236952#3 133236952#4 -302410364#2 247027471#0 247027471#1 247027471#2 247027471#3 269788955#2 133236950#3 133236950#4 133236950#5"/>
    </vehicle>
    <vehicle id="43" type="1" depart="0.00">
        <route edges="-264400583#7 -264400583#6 -264400583#5 -264400583#4 -264400583#3 -264400583#2 -264400583#1 -264400583#0 264400582#0 264400582#1 264400582#2 244407979#0 244407979#1 -247027455#0 133236952#2 133236952#3 133236952#4 -302410364#2 -302410364#1 -302410364#0 -262844200#1 -262844200#0 -269789001#7 -269789001#6 -269789001#5 -269789001#4 -269789001#3 -269789001#2 -269789001#1 -269789001#0 -262844198#2 -262844198#1 -262844198#0 256186570#0 256186570#1 256186570#2 256186570#3"/>
    </vehicle>
    <vehicle id="44" type="1" depart="0.00">
        <route edges="-60787468#2 270025399#0 270025399#1 270025399#2 -269788959#2 -269788959#1 -269788959#0 -60787474#5 -60787474#4 -60787474#3 -60787474#2 -60787474#1 -60787474#0 -247027455#2 -247027455#1 -247027455#0 247027453#0 247027453#1 247027453#2 247027453#3 247027453#4 247027453#5 247027453#6 247027452#0"/>
    </vehicle>
    <vehicle id="45" type="1" depart="0.00">
        <route edges="232326530#1 268564472#0 268564472#1 268564472#2 268564472#3 268564472#4 268564472#5 268564472#6 -255431340#1 255431340#1"/>
    </vehicle>
    <vehicle id="47" type="1" depart="0.00">
        <route edges="-60787468#3 -60787468#2 -268564487#1 -268564487#0 24000959#0 24000959#1 24000959#2 24000959#3 24000959#4 24000959#5 24000959#6 24000959#7 24000959#8 246651383#2 246651383#0 60787594#0 60787594#1 264400583#0 264400583#1 -106335692#6 -106335692#5 -106335692#4 106335692#4"/>
    </vehicle>
    <vehicle id="48" type="1" depart="0.00">
        <route edges="247027456 -60787594#1 247027454#5 247027467 197662927#0 197662927#1 247027461#0 247027461#1 247027461#2 -265001846 243317509 334849012"/>
    </vehicle>
    <vehicle id="49" type="1" depart="0.00">
        <route edges="243317509 -160307905#1 29395277#2 468047667 265001846 255431340#0 255431340#1 268564487#0 268564487#1 270025399#0 270025399#1 270025399#2 312929530#0 312929530#1 255247886#0 255247886#1 255247886#2 -269788952#6 -269788952#5 -269788952#4"/>
    </vehicle>
    <vehicle id="51" type="1" depart="0.00">
        <route edges="106335692#9 111811881#3 111811881#4 111811881#5 111811881#6 -247027466 247027456 264400582#0 264400582#1 264400582#2 244407979#0 244407979#1 247027455#1 247027455#2 238699266#0"/>
    </vehicle>
    <vehicle id="52" type="1" depart="0.00">
        <route edges="334849020#0 334849020#1 334849020#2 160307905#0 160307905#1 334849013 243317512#0 243317512#1 60787472 268564470#0 268564470#1 270025385#0 270025385#1 270025385#2 268564471#0 268564471#1 268564471#2 -270025400#3 -270025400#2 -270025400#1 -270025400#0 -22764012#1"/>
    </vehicle>
    <vehicle id="53" type="1" depart="0.00">
        <route edges="268564488#1 268564488#2 22764020#1 22764020#2 198582308#1 198582308#2 198582308#3 269788955#4 269788952#0 269788952#1 -269788952#1"/>
    </vehicle>
    <vehicle id="54" type="1" depart="0.00">
        <route edges="-197315982 197315982 268564472#2 -60787469#0 -425376584 -334849013 -160307905#1 29395277#2"/>
    </vehicle>
    <vehicle id="55" type="1" depart="0.00">
        <route edges="17496274#2 17496274#3 -302410364#2 -302410364#1 -302410364#0 244450484#0 244450484#1 244450484#2 238699266#0 238699266#1 244509952 197662927#0 197662927#1 247027461#0 247027461#1 247027461#2 -265001846 243317509 -160307905#1 -160307905#0 -334849020#2 -334849020#1 -244456575"/>
    </vehicle>
    <vehicle id="56" type="1" depart="0.00">
        <route edges="269502157#2 317410455 246651378#1 256186570#0 256186570#1 256186570#2 256186570#3 256186570#4 -244509935#1 -244509935#0 -269788952#6 -269788952#5 -269788952#4 -269788952#3 -269788952#2 -269788952#1 -269788952#0 269788955#5 249706146#1 249706146#2"/>
    </vehicle>
    <vehicle id="58" type="1" depart="0.00">
        <route edges="29251608#1 29251608#2 198582308#0 198582308#1 198582308#2 198582308#3 269788955#4 269788952#0 269788952#1 269788952#2 269788952#3 269788952#4 269788952#5 269788952#6 244509935#0 244509935#1 287735315 198724107 269502157#0 269502157#1 269502157#2 -269478660#1 -269478660#0 -279397395"/>
    </vehicle>
    <vehicle id="59" type="1" depart="0.00">
        <route edges="334849013 243317512#0 243317512#1 60787472 268564470#0 268564470#1 270025385#0 270025385#1 270025385#2 268564471#0 268564471#1 268564471#2 -270025400#3 -270025400#2 -270025400#1 -270025400#0 -22764012#1 -22764012#0 179000190#0 179000190#1 238208424#0 238208424#1 238208424#2 238208424#3 -330804415#2 -330804415#1"/>
    </vehicle>
    <vehicle id="60" type="1" depart="0.00">
        <route edges="133236950#3 269788955#7 247027471#3 269788955#2 269788955#3 269788955#4 269788952#0 269788952#1 269788952#2 -269788952#2"/>
    </vehicle>
    <vehicle id="61" type="1" depart="0.00">
        <route edges="179000190#1 238208424#0 238208424#1 238208424#2 238208424#3 -330804415#2 -330804415#1 -330804415#0 -293207793#2 -293207793#1 -293207793#0 -198724107 -287735315 -244509935#1 -244509935#0 -269788952#6 -269788952#5 -269788952#4 -269788952#3 -269788952#2 -269788952#1 -269788952#0 269788955#5 269788955#6 269788955#7 247027471#3 247027471#4 247027471#5 247027471#6 -255680090 -29251608#3 -29251608#2 -29251608#1"/>
    </vehicle>
    <vehicle id="62" type="1" depart="0.00">
        <route edges="269788959#2 -270025399#2 -270025399#1 -270025399#0 -268564487#1 -268564487#0 24000959#0 24000959#1 24000959#2 24000959#3 24000959#4 24000959#5 24000959#6 24000959#7 24000959#8 246651383#2 246651383#0 60787594#0 247027454#5"/>
    </vehicle>
    <vehicle id="63" type="1" depart="0.00">
        <route edges="264400582#0 264400582#1 264400582#2 244407979#0 244407979#1 -247027455#0 133236952#2 133236952#3 133236952#4 -302410364#2 -302410364#1 -302410364#0 -262844200#1 -262844200#0 -269789001#7 -269789001#6 -269789001#5 -269789001#4 -269789001#3 -269789001#2 -269789001#1 -269789001#0 -262844198#2 -262844198#1 -262844198#0 -246651378#1 -246651378#0 -270025400#3 -270025400#2 -270025400#1 -270025400#0 268564486#0 268564486#1 238699263#0"/>
    </vehicle>
    <vehicle id="64" type="1" depart="0.00">
        <route edges="270025399#1 -270025399#1 -270025399#0 -268564487#1 -268564487#0 -255431340#1 -255431340#0 -265001846 243317509 -160307905#1 -160307905#0 -334849020#2 -334849020#1"/>
    </vehicle>
    <vehicle id="65" type="1" depart="0.00">
        <route edges="22764020#1 22764020#2 198582308#1 198582308#2 198582308#3 249706146#0 249706146#1 249706146#2 249706146#3 249706146#4 302410364#0 247027454#0 247027454#1 247027454#2 247027454#3 247027454#4 247027454#5 247027466 247027457#0 247027457#1 247027457#2 247027457#3 -106335692#10 111811881#3 111811881#4"/>
    </vehicle>
    <vehicle id="66" type="1" depart="0.00">
        <route edges="334849013 243317512#0 243317512#1 60787472 268564470#0 268564470#1 270025385#0 270025385#1 270025385#2 268564471#0 268564471#1 268564471#2 -270025400#3 -270025400#2 -270025400#1 -270025400#0 -22764012#1 -22764012#0 179000190#0 179000190#1 238208424#0 238208424#1 238208424#2 238208424#3 -330804415#2 -330804415#1"/>
    </vehicle>
    <vehicle id="67" type="1" depart="0.00">
        <route edges="312929530#1 -262844198#2 -262844198#1 -262844198#0 -246651378#1 -246651378#0 -270025400#3 -270025400#2 -270025400#1 -270025400#0 268564486#0 268564486#1 238699263#0 238699263#1 238699263#2 238699263#3"/>
    </vehicle>
    <vehicle id="68" type="1" depart="0.00">
        <route edges="374960473 268564486#0 268564486#1 303413199#0 303413199#1 303413199#2 303413199#3 303413199#4 303413199#5 232326530#1 268564470#0 268564470#1 270025385#0 270025385#1 270025385#2 60787467#0 60787467#1"/>
    </vehicle>
    <vehicle id="71" type="1" depart="0.00">
        <route edges="179000190#1 -179000190#1 -179000190#0 22764012#0 22764012#1 270025400#0 270025400#1 270025400#2 270025400#3 246651378#0 246651378#1 262844198#0 262844198#1 262844198#2 269789001#0 269789001#1 269789001#2 269789001#3 269789001#4 269789001#5 269789001#6 269789001#7 262844200#0 262844200#1 302410364#0 247027454#0 247027454#1 247027454#2 -247027455#1 -247027455#0 247027453#0 247027453#1 247027453#2 247027453#3 247027453#4 247027453#5 247027453#6"/>
    </vehicle>
    <vehicle id="72" type="1" depart="0.00">
        <route edges="264400582#0 264400582#1 264400582#2 244407979#0 244407979#1 -247027455#0 133236952#2 133236952#3 133236952#4 -302410364#2 -302410364#1 -302410364#0 -262844200#1 -262844200#0 -269789001#7 -269789001#6 -269789001#5 -269789001#4 -269789001#3 -269789001#2 -269789001#1 -269789001#0 -262844198#2 -262844198#1 -262844198#0 -246651378#1 -246651378#0 -270025400#3 -270025400#2 -270025400#1 -270025400#0 -22764012#1 -22764012#0 179000190#0 179000190#1 238208424#0 -238208424#0"/>
    </vehicle>
    <vehicle id="73" type="1" depart="0.00">
        <route edges="334852287#0 334852287#1 334852287#2 366116366#0 160279691#1 160279691#2 333279724 60787472 268564470#0 268564470#1 270025385#0 270025385#1 270025385#2 268564471#0 268564471#1 268564471#2 246651378#0 246651378#1 262844198#0 262844198#1 262844198#2 269789001#0 269789001#1"/>
    </vehicle>
    <vehicle id="74" type="1" depart="0.00">
        <route edges="22764020#1 22764020#2 198582308#1 198582308#2 198582308#3 269788955#4 269788952#0 269788952#1 269788952#2 269788952#3 269788952#4 269788952#5 269788952#6 244509935#0 244509935#1 287735315 198724107 269502157#0 269502157#1 269502157#2 -269478660#1 -269478660#0 269478660#0"/>
    </vehicle>
    <vehicle id="75" type="1" depart="0.00">
        <route edges="-60787469#2 -60787469#1 -60787469#0 -425376584 -334849013 -160307905#1 29395277#2 468047666 33679533 247027457#0 247027457#1 247027457#2 247027457#3 106335692#11"/>
    </vehicle>
    <vehicle id="76" type="1" depart="0.00">
        <route edges="334849020#1 334849020#2 334849011 326969436#0 326969436#1 33679533 -247027466 247027456 264400582#0 264400582#1 264400582#2 244407979#0 244407979#1 -247027455#0 133236952#2 133236952#3 133236952#4 238211712#0 238211712#1"/>
    </vehicle>
    <vehicle id="77" type="1" depart="0.00">
        <route edges="197662927#1 247027461#0 247027461#1 247027461#2 255431340#0 255431340#1 268564487#0 268564487#1 270025399#0 270025399#1 270025399#2 312929530#0 312929530#1 -262844198#2 -262844198#1 -262844198#0 -246651378#1 -246651378#0 -270025400#3 -270025400#2 -270025400#1 -270025400#0 270025400#0"/>
    </vehicle>
    <vehicle id="78" type="1" depart="0.00">
        <route edges="-106335692#3 106335692#3 106335692#4 106335692#5 106335692#6 -264400583#1 -264400583#0 -60787594#1 247027454#5 247027467 197662927#0 197662927#1 247027461#0 247027461#1 247027461#2 425376583#0 425376583#1 243317512#0 243317512#1"/>
    </vehicle>
    <vehicle id="81" type="1" depart="0.00">
        <route edges="303413199#5 232326530#1 268564470#0 268564470#1 -60787468#5 -60787468#4 -60787468#3 -60787468#2 270025399#0 270025399#1"/>
    </vehicle>
    <vehicle id="82" type="1" depart="0.00">
        <route edges="-268564487#0 268564487#0 268564487#1 270025399#0 270025399#1 270025399#2 312929530#0 312929530#1 269789001#0 269789001#1 269789001#2 269789001#3 269789001#4 269789001#5 269789001#6 269789001#7 262844200#0 262844200#1 302410364#0 302410364#1 247027471#0 247027471#1"/>
    </vehicle>
    <vehicle id="83" type="1" depart="0.00">
        <route edges="22764020#1 22764020#2 198582308#1 198582308#2 198582308#3 249706146#0 249706146#1 249706146#2 249706146#3 249706146#4 244450484#0 244450484#1 244450484#2 238699266#0 238699266#1 244509952 197662927#0 197662927#1 247027461#0 247027461#1 247027461#2 -265001846 243317509 334849012 333279726 105496781#0 105496781#1 366116371 443580489#0 443580489#1"/>
    </vehicle>
    <vehicle id="84" type="1" depart="0.00">
        <route edges="255247886#2 -269788952#6 -269788952#5 -269788952#4 269788952#4"/>
    </vehicle>
    <vehicle id="85" type="1" depart="0.00">
        <route edges="247027471#3 269788955#2 269788955#3 249706146#0 249706146#1 249706146#2 249706146#3 249706146#4 244450484#0 244450484#1 244450484#2 238699266#0 238699266#1"/>
    </vehicle>
    <vehicle id="86" type="1" depart="0.00">
        <route edges="24006848 -468047667 468047666"/>
    </vehicle>
    <vehicle id="87" type="1" depart="0.00">
        <route edges="268564470#0 268564470#1 -60787468#5 -60787468#4 -60787468#3 -60787468#2 -268564487#1 -268564487#0 -255431340#1 -255431340#0 -265001846 -468047667 468047666 33679533 247027457#0 247027457#1 247027457#2 247027457#3 106335692#11 -106335692#11"/>
    </vehicle>
    <vehicle id="88" type="1" depart="0.00">
        <route edges="264400583#8 -264400583#8 -264400583#7 -264400583#6 -264400583#5 -264400583#4 -264400583#3 -264400583#2 -264400583#1 -264400583#0 -60787594#1 247027454#5 247027467 197662927#0 197662927#1 247027461#0 247027461#1 247027461#2 255431340#0 255431340#1 268564487#0 268564487#1 270025399#0 270025399#1 270025399#2 312929522#0 -312929522#0"/>
    </vehicle>
    <vehicle id="91" type="1" depart="0.00">
        <route edges="256186579#1 -256186582#2 -256186582#1 -256186582#0 -264400583#5 -264400583#4 -264400583#3 -264400583#2 -264400583#1 -264400583#0 264400582#0 264400582#1 264400582#2 244407979#0 244407979#1 -247027455#0 133236952#2 133236952#3 133236952#4 -302410364#2 247027471#0 247027471#1 247027471#2 247027471#3 269788955#2 269788955#3 269788955#4 269788952#0 269788952#1"/>
    </vehicle>
    <vehicle id="92" type="1" depart="0.00">
        <route edges="-264400583#7 -264400583#6 -264400583#5 -264400583#4 -264400583#3 -264400583#2 -264400583#1 -264400583#0 264400582#0 264400582#1 264400582#2 244407979#0 244407979#1 -247027455#0 133236952#2 133236952#3 133236952#4 -302410364#2 247027471#0 247027471#1 247027471#2 247027471#3 269788955#2 269788955#3 269788955#4 269788952#0 269788952#1 269788952#2 269788952#3 269788952#4 269788952#5 269788952#6 -255247886#2"/>
    </vehicle>
    <vehicle id="93" type="1" depart="0.00">
        <route edges="264400583#3 -264400583#3 -264400583#2 -264400583#1 -264400583#0 -60787594#1 247027454#5 247027467 197662927#0 197662927#1 247027461#0 247027461#1 247027461#2 -265001846 -468047667 468047666"/>
    </vehicle>
    <vehicle id="94" type="1" depart="0.00">
        <route edges="246651378#0 246651378#1 256186570#0 256186570#1 256186570#2 256186570#3 256186570#4 -244509935#1 -244509935#0 -269788952#6 -269788952#5 -269788952#4 -269788952#3 -269788952#2 269788952#2"/>
    </vehicle>
    <vehicle id="96" type="1" depart="0.00">
        <route edges="17496274#1 17496274#2 17496274#3 -302410364#2 -302410364#1 -302410364#0 -262844200#1 -262844200#0 -269789001#7 -269789001#6 -269789001#5 -269789001#4 -269789001#3 -269789001#2 -269789001#1 -269789001#0 -262844198#2 -262844198#1 -262844198#0 -246651378#1 -246651378#0 -270025400#3 -270025400#2 -270025400#1 -270025400#0 -22764012#1 -22764012#0 179000190#0 179000190#1 238208424#0 238208424#1 82392154"/>
    </vehicle>
    <vehicle id="97" type="1" depart="0.00">
        <route edges="243317510#1 243317510#2 243317510#3 29395277#0 160279691#2 333279724 60787472 268564470#0 268564470#1 270025385#0 270025385#1 270025385#2 268564471#0 268564471#1 268564471#2 246651378#0 246651378#1 256186570#0 256186570#1 256186570#2 256186570#3 256186570#4 287735315 198724107 293207793#0 293207793#1 293207793#2 330804415#0 330804415#1"/>
    </vehicle>
    <vehicle id="98" type="1" depart="0.00">
        <route edges="269788955#10 269788955#0 269788955#1 269788955#2 269788955#3 249706146#0 249706146#1 249706146#2 249706146#3 249706146#4 302410364#0 247027454#0 247027454#1 247027454#2 247027454#3 247027454#4 247027454#5 247027467"/>
    </vehicle>
    <vehicle id="99" type="1" depart="0.00">
        <route edges="264400583#7 -264400583#7 -264400583#6 -264400583#5 -264400583#4 -264400583#3 -264400583#2 -264400583#1 -264400583#0 -60787594#1 -60787594#0 60787594#0"/>
    </vehicle>
    <vehicle id="100" type="1" depart="1.00">