<?xml version="1.0" encoding="UTF-8"?>

<!-- generated on 08/25/17 20:33:48 by SUMO polyconvert Version 0.30.0
<?xml version="1.0" encoding="UTF-8"?>

<configuration xmlns:xsi="http://www.w3.org/2001/XMLSchema-instance" xsi:noNamespaceSchemaLocation="http://sumo.dlr.de/xsd/polyconvertConfiguration.xsd">

    <input>
        <net-file value="map.net.xml"/>
        <osm-files value="map.osm"/>
        <type-file value="typemap.xml"/>
    </input>

    <output>
        <output-file value="map.poly.xml"/>
    </output>

    <processing>
        <poi-layer-offset value="5"/>
    </processing>

</configuration>
-->

<additional xmlns:xsi="http://www.w3.org/2001/XMLSchema-instance" xsi:noNamespaceSchemaLocation="http://sumo.dlr.de/xsd/additional_file.xsd">
    <location netOffset="-347582.18,-2768827.70" convBoundary="0.00,-0.00,3357.20,2416.54" origBoundary="121.489332,25.027631,121.522551,25.049423" projParameter="+proj=utm +zone=51 +ellps=WGS84 +datum=WGS84 +units=m +no_defs"/>

    <poly id="131457251" type="tourism" color="207,245,201" fill="1" layer="-2.00" shape="2520.70,1320.31 2520.77,1326.86 2505.64,1329.41 2495.03,1320.02 2489.20,1316.32 2487.41,1293.26 2481.38,1242.23 2486.03,1236.01 2565.53,1226.92 2613.01,1221.49 2614.48,1226.31 2616.86,1228.51 2634.50,1290.90 2629.38,1297.30 2624.29,1306.08 2573.69,1312.79 2520.70,1320.31"/>
    <poly id="138997600" type="amenity" color="237,199,199" fill="0" layer="-1.00" shape="2474.80,1064.82 2481.18,1136.29 2600.63,1125.72"/>
    <poly id="138997602" type="building" color="255,230,230" fill="1" layer="-1.00" shape="2642.68,1153.05 2669.71,1145.76 2670.41,1146.95 2675.97,1145.21 2685.83,1177.36 2681.37,1178.15 2641.79,1188.59 2639.85,1181.94 2638.36,1182.14 2632.33,1158.67 2643.48,1155.58 2642.68,1153.05"/>
    <poly id="138997672" type="building" color="255,230,230" fill="1" layer="-1.00" shape="2489.52,1103.74 2495.47,1103.60 2495.63,1110.53 2482.19,1110.87 2482.49,1123.31 2549.70,1121.67 2549.49,1113.12 2542.87,1113.28 2541.65,1063.56 2488.57,1064.85 2489.52,1103.74"/>
    <poly id="138997678" type="building" color="255,230,230" fill="1" layer="-1.00" shape="2682.92,1247.05 2690.10,1272.25 2710.78,1266.43 2706.78,1252.35 2723.56,1247.63 2725.71,1255.19 2743.11,1250.29 2740.95,1242.67 2764.07,1236.16 2768.02,1250.06 2786.44,1244.88 2779.08,1219.00 2772.87,1220.74 2768.30,1204.71 2771.76,1203.75 2767.92,1190.27 2766.82,1186.40 2748.23,1191.64 2749.63,1196.53 2721.63,1204.42 2693.43,1212.36 2692.53,1209.20 2674.09,1214.40 2678.62,1230.34 2683.15,1229.07 2687.87,1245.66 2682.92,1247.05"/>
    <poly id="139046492" type="amenity" color="237,199,199" fill="0" layer="-1.00" shape="2880.37,1858.29 2824.04,1872.93 2811.31,1831.86 2804.50,1805.06 2785.70,1739.18 2730.48,1532.33 2731.88,1524.56"/>
    <poly id="191741898" type="building" color="255,230,230" fill="1" layer="-1.00" shape="2141.08,1459.29 2186.31,1454.71 2180.49,1397.71 2216.21,1394.11 2219.80,1429.42 2224.18,1472.37 2226.81,1498.07 2201.20,1500.64 2164.20,1504.38 2145.86,1506.23 2141.08,1459.29"/>
    <poly id="191741899" type="military" color="153,153,92" fill="0" layer="-3.00" shape="1985.29,1139.17 1937.17,1144.84 1910.21,1059.59 2071.04,984.87 2141.82,950.26"/>
    <poly id="193799366" type="building" color="255,230,230" fill="1" layer="-1.00" shape="2275.43,1164.46 2276.67,1178.61 2280.84,1178.24 2281.32,1183.74 2286.39,1183.30 2285.94,1178.17 2306.46,1176.39 2306.90,1181.39 2313.90,1180.78 2313.13,1172.03 2318.22,1171.58 2317.83,1167.06 2312.61,1167.51 2312.06,1161.27 2275.43,1164.46"/>
    <poly id="193799367" type="building" color="255,230,230" fill="1" layer="-1.00" shape="2272.41,1140.70 2271.36,1128.65 2275.21,1128.31 2274.45,1119.54 2280.72,1118.99 2281.02,1122.38 2294.34,1121.24 2294.05,1117.88 2303.90,1117.03 2304.37,1122.44 2311.84,1121.81 2313.18,1137.19 2272.41,1140.70"/>
    <poly id="193799368" type="building" color="255,230,230" fill="1" layer="-1.00" shape="2261.63,1205.04 2257.11,1165.81 2254.93,1146.83 2250.33,1105.14 2328.27,1097.26 2332.86,1136.29 2347.34,1135.10 2349.16,1152.98 2335.09,1153.93 2339.77,1197.38 2261.63,1205.04"/>
    <poly id="193799370" type="building" color="255,230,230" fill="1" layer="-1.00" shape="2005.90,1332.79 2002.61,1299.85 2024.82,1297.65 2024.37,1293.18 2034.39,1292.19 2034.84,1296.64 2066.64,1293.50 2066.22,1289.35 2075.47,1288.44 2075.87,1292.49 2102.23,1289.89 2105.53,1322.94 2005.90,1332.79"/>
    <poly id="196945944" type="amenity" color="237,199,199" fill="1" layer="-1.00" shape="2679.08,1606.48 2676.35,1602.69 2677.18,1597.73 2680.56,1595.13 2685.36,1595.49 2688.73,1599.73 2688.02,1604.35 2684.00,1607.31 2679.08,1606.48"/>
    <poly id="196945944#1" type="building" color="255,230,230" fill="1" layer="-1.00" shape="2679.08,1606.48 2676.35,1602.69 2677.18,1597.73 2680.56,1595.13 2685.36,1595.49 2688.73,1599.73 2688.02,1604.35 2684.00,1607.31 2679.08,1606.48"/>
    <poly id="196945945" type="water" color="181,209,209" fill="1" layer="-4.00" shape="2673.42,1627.59 2668.51,1624.14 2665.37,1609.64 2668.57,1605.03 2663.64,1599.70 2658.31,1582.80 2665.83,1577.87 2674.25,1579.39 2679.37,1578.26 2680.42,1574.75 2687.69,1571.44 2693.13,1574.07 2698.46,1590.70 2695.25,1594.77 2696.38,1599.34 2701.83,1602.24 2706.89,1619.14 2694.75,1623.04 2690.13,1621.21 2685.54,1622.34 2683.14,1625.86 2673.42,1627.59"/>
    <poly id="197114282" type="amenity" color="237,199,199" fill="0" layer="-1.00" shape="1917.16,637.43 1921.89,732.17 1924.84,791.32"/>
    <poly id="197315981" type="military" color="153,153,92" fill="1" layer="-3.00" shape="1911.78,1418.39 1997.96,1402.38 1966.64,1286.97 1880.63,1295.34 1911.78,1418.39"/>
    <poly id="197315983" type="building" color="255,230,230" fill="1" layer="-1.00" shape="1957.35,1218.55 1947.81,1185.80 1951.40,1182.65 1956.83,1181.41 1956.94,1182.49 1967.31,1181.02 1977.51,1219.51 1962.62,1221.66 1957.35,1218.55"/>
    <poly id="197315986" type="military" color="153,153,92" fill="1" layer="-3.00" shape="1936.12,1511.21 1916.41,1434.98 2001.00,1423.13 2018.62,1485.59 1936.12,1511.21"/>
    <poly id="197316114" type="building" color="255,230,230" fill="1" layer="-1.00" shape="1859.78,1223.36 1853.23,1199.17 1898.78,1186.97 1905.33,1211.16 1859.78,1223.36"/>
    <poly id="197316116" type="amenity" color="237,199,199" fill="1" layer="-1.00" shape="1734.85,850.55 1839.38,814.35 1854.50,894.16 1767.63,922.30 1734.85,850.55"/>
    <poly id="197664858" type="farm" color="242,242,204" fill="1" layer="-3.00" shape="2368.31,819.02 2551.64,792.58 2549.34,777.09 2555.17,762.35 2569.76,739.70 2572.01,733.61 2538.98,692.61 2533.57,693.17 2531.79,690.63 2528.55,686.03 2530.00,682.42 2497.06,637.52 2472.16,634.04 2443.26,685.50 2399.05,764.26 2368.31,819.02"/>
    <poly id="197819464" type="military" color="153,153,92" fill="1" layer="-3.00" shape="2232.16,1313.04 2227.04,1263.34 2326.22,1254.12 2330.79,1303.58 2232.16,1313.04"/>
    <poly id="198258680" type="amenity" color="237,199,199" fill="0" layer="-1.00" shape="2615.62,995.13 2612.69,888.06 2631.71,868.87 2642.32,849.77 2714.63,840.77 2725.64,854.86 2746.00,924.69 2767.99,1005.19 2714.80,1020.13"/>
    <poly id="198258681" type="building" color="255,230,230" fill="1" layer="-1.00" shape="2631.75,870.68 2644.62,869.95 2648.44,937.31 2635.57,938.04 2631.75,870.68"/>
    <poly id="222080307" type="amenity" color="237,199,199" fill="1" layer="-1.00" shape="1739.22,1634.41 1736.52,1622.86 1769.97,1613.35 1775.56,1616.24 1785.42,1614.79 1791.48,1611.49 1794.79,1605.00 1793.74,1596.26 1788.00,1591.20 1779.52,1590.65 1770.26,1596.88 1729.97,1605.58 1727.16,1593.12 1710.66,1597.17 1713.77,1609.11 1701.64,1613.16 1706.84,1630.87 1717.08,1627.39 1721.95,1639.98 1739.22,1634.41"/>
    <poly id="222080307#1" type="building" color="255,230,230" fill="1" layer="-1.00" shape="1739.22,1634.41 1736.52,1622.86 1769.97,1613.35 1775.56,1616.24 1785.42,1614.79 1791.48,1611.49 1794.79,1605.00 1793.74,1596.26 1788.00,1591.20 1779.52,1590.65 1770.26,1596.88 1729.97,1605.58 1727.16,1593.12 1710.66,1597.17 1713.77,1609.11 1701.64,1613.16 1706.84,1630.87 1717.08,1627.39 1721.95,1639.98 1739.22,1634.41"/>
    <poly id="222080573" type="building" color="255,230,230" fill="1" layer="-1.00" shape="1987.27,1574.37 1977.87,1542.12 2024.24,1525.73 2033.80,1558.20 1987.27,1574.37"/>
    <poly id="222080573#1" type="shop" color="237,199,255" fill="1" layer="-1.00" shape="1987.27,1574.37 1977.87,1542.12 2024.24,1525.73 2033.80,1558.20 1987.27,1574.37"/>
    <poly id="229825131" type="commercial" color="209,209,204" fill="1" layer="-3.00" shape="1647.32,1950.08 1626.51,1872.74 1606.92,1814.44 1688.27,1793.37 1726.65,1777.40 1821.03,1749.10 1862.35,1668.23 1916.01,1652.46 1972.72,1862.32 1869.63,1889.75 1891.27,1968.83 1870.82,1974.49 1849.65,1894.30 1748.65,1920.32 1774.08,2006.43 1670.67,2034.54 1647.32,1950.08"/>
    <poly id="229885638" type="building" color="255,230,230" fill="1" layer="-1.00" shape="2379.31,1008.32 2415.03,1003.49 2413.51,992.40 2412.77,986.94 2411.92,980.77 2410.05,966.97 2391.51,969.48 2374.33,971.80 2379.31,1008.32"/>
    <poly id="229885642" type="amenity" color="237,199,199" fill="0" layer="-1.00" shape="2378.83,1073.32 2474.80,1064.82"/>
    <poly id="229885643" type="building" color="255,230,230" fill="1" layer="-1.00" shape="2579.17,1003.04 2587.79,1002.00 2587.07,996.21 2582.64,962.06 2573.93,963.12 2579.17,1003.04"/>
    <poly id="229885646" type="building" color="255,230,230" fill="1" layer="-1.00" shape="2552.24,1013.03 2588.61,1008.61 2587.99,1003.63 2587.79,1002.00 2579.17,1003.04 2556.10,1005.84 2551.19,965.88 2573.93,963.12 2582.64,962.06 2581.25,950.75 2544.46,955.22 2545.18,961.07 2535.04,962.30 2537.71,984.06 2540.78,1009.05 2551.58,1007.73 2552.24,1013.03"/>
    <poly id="229885647" type="building" color="255,230,230" fill="1" layer="-1.00" shape="2386.23,994.83 2385.02,986.28 2405.83,983.36 2407.04,991.91 2386.23,994.83"/>
    <poly id="229885648" type="building" color="255,230,230" fill="1" layer="-1.00" shape="2379.50,1072.63 2485.60,1057.29 2480.58,1026.58 2462.62,1029.17 2460.92,1029.41 2462.91,1043.10 2427.92,1048.15 2410.58,1050.65 2409.38,1042.39 2408.50,1036.34 2408.02,1033.07 2407.85,1031.93 2416.18,1030.73 2416.01,1029.59 2413.97,1015.65 2372.07,1021.70 2379.50,1072.63"/>
    <poly id="229885652" type="building" color="255,230,230" fill="1" layer="-1.00" shape="2442.15,947.40 2427.01,949.46 2426.89,948.48 2426.70,947.12 2422.65,947.51 2420.64,937.12 2424.76,936.63 2423.89,929.10 2425.41,928.90 2459.10,924.69 2502.14,919.49 2502.28,920.80 2502.89,926.79 2508.46,926.06 2509.45,935.48 2505.90,936.83 2505.81,939.06 2503.12,939.32 2497.27,939.89 2497.82,942.36 2496.51,943.82 2494.42,943.44 2493.14,942.30 2492.94,940.48 2489.16,940.78 2487.91,943.25 2486.03,944.71 2483.69,944.18 2481.60,942.22 2462.23,944.80 2450.78,946.32 2449.18,948.67 2446.85,949.47 2444.42,949.01 2442.15,947.40"/>
    <poly id="229885655" type="building" color="255,230,230" fill="1" layer="-1.00" shape="2519.73,949.25 2514.29,912.73 2525.49,911.15 2576.32,904.03 2577.73,903.82 2581.60,942.47 2529.58,948.17 2519.73,949.25"/>
    <poly id="229885658" type="building" color="255,230,230" fill="1" layer="-1.00" shape="2506.81,909.31 2524.76,906.75 2568.07,900.59 2564.30,874.40 2563.35,867.76 2519.89,873.95 2502.09,876.49 2504.33,892.05 2506.81,909.31"/>
    <poly id="229885659" type="leisure" color="207,245,201" fill="1" layer="-2.00" shape="2485.60,1057.29 2480.58,1026.58 2479.31,1018.81 2495.46,1016.19 2495.63,1017.32 2501.75,1054.68 2485.60,1057.29"/>
    <poly id="229885659#1" type="sport" color="79,230,125" fill="1" layer="-2.00" shape="2485.60,1057.29 2480.58,1026.58 2479.31,1018.81 2495.46,1016.19 2495.63,1017.32 2501.75,1054.68 2485.60,1057.29"/>
    <poly id="229885664" type="amenity" color="237,199,199" fill="1" layer="-1.00" shape="2377.82,927.14 2405.61,923.06 2403.96,908.40 2402.40,894.43 2373.71,898.11 2377.82,927.14"/>
    <poly id="229885664#1" type="building" color="255,230,230" fill="1" layer="-1.00" shape="2377.82,927.14 2405.61,923.06 2403.96,908.40 2402.40,894.43 2373.71,898.11 2377.82,927.14"/>
    <poly id="229885665" type="building" color="255,230,230" fill="1" layer="-1.00" shape="2509.81,1058.66 2579.55,1050.08 2580.38,1053.76 2590.96,1052.78 2589.92,1043.00 2582.98,1043.32 2582.97,1041.95 2582.96,1040.90 2591.34,1040.42 2588.50,1015.56 2569.81,1017.66 2544.65,1020.66 2505.65,1025.30 2507.21,1036.43 2507.60,1039.16 2503.10,1039.62 2503.19,1049.77 2506.72,1049.26 2505.12,1052.44 2505.71,1055.47 2509.22,1055.89 2509.81,1058.66"/>
    <poly id="232326529" type="amenity" color="237,199,199" fill="1" layer="-1.00" shape="1997.11,1711.04 2012.95,1767.31 2017.29,1782.77 2022.18,1781.41 2021.14,1777.73 2043.91,1771.39 2042.52,1766.43 2053.34,1763.42 2051.78,1757.91 2062.91,1754.82 2062.42,1753.10 2076.11,1749.28 2074.85,1744.81 2084.26,1742.19 2083.71,1740.23 2107.30,1733.65 2104.05,1722.12 2117.82,1718.30 2112.96,1701.04 2100.25,1704.58 2099.09,1700.47 2064.40,1710.13 2062.17,1702.17 2030.97,1710.86 2015.93,1715.04 2013.52,1706.47 1997.11,1711.04"/>
    <poly id="232326529#1" type="building" color="255,230,230" fill="1" layer="-1.00" shape="1997.11,1711.04 2012.95,1767.31 2017.29,1782.77 2022.18,1781.41 2021.14,1777.73 2043.91,1771.39 2042.52,1766.43 2053.34,1763.42 2051.78,1757.91 2062.91,1754.82 2062.42,1753.10 2076.11,1749.28 2074.85,1744.81 2084.26,1742.19 2083.71,1740.23 2107.30,1733.65 2104.05,1722.12 2117.82,1718.30 2112.96,1701.04 2100.25,1704.58 2099.09,1700.47 2064.40,1710.13 2062.17,1702.17 2030.97,1710.86 2015.93,1715.04 2013.52,1706.47 1997.11,1711.04"/>
    <poly id="232326529#2" type="historic" color="128,255,128" fill="1" layer="-1.00" shape="1997.11,1711.04 2012.95,1767.31 2017.29,1782.77 2022.18,1781.41 2021.14,1777.73 2043.91,1771.39 2042.52,1766.43 2053.34,1763.42 2051.78,1757.91 2062.91,1754.82 2062.42,1753.10 2076.11,1749.28 2074.85,1744.81 2084.26,1742.19 2083.71,1740.23 2107.30,1733.65 2104.05,1722.12 2117.82,1718.30 2112.96,1701.04 2100.25,1704.58 2099.09,1700.47 2064.40,1710.13 2062.17,1702.17 2030.97,1710.86 2015.93,1715.04 2013.52,1706.47 1997.11,1711.04"/>
    <poly id="232326532" type="building" color="255,230,230" fill="1" layer="-1.00" shape="1829.75,1674.03 1851.35,1682.37 1855.15,1690.78 1835.43,1730.11 1818.19,1719.95 1811.79,1698.62 1821.04,1679.44 1829.75,1674.03"/>
    <poly id="232562862" type="landuse" color="194,194,130" fill="1" layer="-3.00" shape="1956.88,1571.87 1961.94,1573.17 1969.11,1571.93 1982.26,1568.70 1975.57,1542.52 1950.22,1549.56 1956.88,1571.87"/>
    <poly id="232563225" type="tourism" color="207,245,201" fill="1" layer="-2.00" shape="1805.88,1323.42 1743.31,1334.14 1731.80,1445.08 1837.38,1433.44 1805.88,1323.42"/>
    <poly id="232678750" type="building" color="255,230,230" fill="1" layer="-1.00" shape="1880.38,1701.03 1884.85,1691.52 1868.93,1680.98 1865.21,1687.41 1867.00,1693.31 1880.38,1701.03"/>
    <poly id="232678751" type="building" color="255,230,230" fill="1" layer="-1.00" shape="1997.85,1698.90 2010.56,1695.06 2009.11,1690.13 2012.66,1687.92 2005.67,1662.69 2003.26,1654.02 2007.29,1652.11 2004.07,1641.79 2000.88,1634.56 1992.84,1638.82 1990.10,1644.58 1987.18,1646.62 1984.11,1650.05 1983.36,1653.93 1985.26,1656.99 1987.65,1675.68 1992.34,1692.01 1997.85,1698.90"/>
    <poly id="232678752" type="building" color="255,230,230" fill="1" layer="-1.00" shape="2147.66,1651.21 2148.13,1626.73 2094.87,1625.68 2091.43,1629.73 2094.89,1644.30 2114.56,1646.64 2114.23,1649.56 2127.49,1652.89 2129.11,1651.22 2147.66,1651.21"/>
    <poly id="233196579" type="building" color="255,230,230" fill="1" layer="-1.00" shape="2099.07,845.66 2133.71,829.60 2147.59,859.25 2112.96,875.30 2099.07,845.66"/>
    <poly id="233331011" type="building" color="255,230,230" fill="1" layer="-1.00" shape="1746.97,1420.99 1776.69,1414.12 1774.63,1405.32 1785.59,1402.78 1782.42,1389.17 1770.94,1391.82 1768.29,1380.45 1739.08,1387.20 1746.97,1420.99"/>
    <poly id="233331024" type="building" color="255,230,230" fill="1" layer="-1.00" shape="1826.07,1429.42 1809.38,1431.73 1807.02,1414.76 1823.69,1412.45 1826.07,1429.42"/>
    <poly id="236039519" type="building" color="255,230,230" fill="1" layer="-1.00" shape="2436.49,1644.81 2441.04,1639.51 2456.74,1639.34 2457.06,1658.07 2436.80,1658.62 2436.49,1644.81"/>
    <poly id="236039519#1" type="shop" color="237,199,255" fill="1" layer="-1.00" shape="2436.49,1644.81 2441.04,1639.51 2456.74,1639.34 2457.06,1658.07 2436.80,1658.62 2436.49,1644.81"/>
    <poly id="236048210" type="building" color="255,230,230" fill="1" layer="-1.00" shape="2434.26,1739.26 2434.19,1727.42 2468.14,1726.69 2468.19,1742.30 2438.39,1743.09 2434.26,1739.26"/>
    <poly id="236048211" type="building" color="255,230,230" fill="1" layer="-1.00" shape="2471.87,1741.19 2471.71,1726.73 2509.09,1725.86 2509.27,1737.21 2506.73,1740.32 2471.87,1741.19"/>
    <poly id="245993047" type="building" color="255,230,230" fill="1" layer="-1.00" shape="2583.94,825.69 2606.38,822.81 2608.06,835.76 2585.62,838.64 2583.94,825.69"/>
    <poly id="245993047#1" type="historic" color="128,255,128" fill="1" layer="-1.00" shape="2583.94,825.69 2606.38,822.81 2608.06,835.76 2585.62,838.64 2583.94,825.69"/>
    <poly id="246651384" type="building" color="255,230,230" fill="1" layer="-1.00" shape="1896.42,1043.98 1909.67,1038.12 1904.61,1025.59 1890.53,1030.32 1896.42,1043.98"/>
    <poly id="246651384#1" type="historic" color="128,255,128" fill="1" layer="-1.00" shape="1896.42,1043.98 1909.67,1038.12 1904.61,1025.59 1890.53,1030.32 1896.42,1043.98"/>
    <poly id="247203635" type="building" color="255,230,230" fill="1" layer="-1.00" shape="2316.00,1042.74 2308.33,974.82 2280.87,978.09 2202.64,985.63 2210.59,1054.14 2289.25,1045.74 2316.00,1042.74"/>
    <poly id="247442014" type="building" color="255,230,230" fill="1" layer="-1.00" shape="2459.84,957.94 2470.85,956.60 2470.12,949.95 2459.09,951.52 2459.84,957.94"/>
    <poly id="247442016" type="leisure" color="207,245,201" fill="1" layer="-2.00" shape="2438.67,1019.47 2531.05,1007.81 2529.85,999.74 2522.05,1000.38 2523.66,998.06 2525.00,996.10 2526.13,993.46 2527.51,990.68 2528.36,987.37 2528.85,983.67 2528.95,979.56 2528.43,975.53 2527.22,969.90 2525.68,966.14 2523.68,962.06 2520.93,958.59 2525.03,958.00 2524.19,951.94 2429.91,963.38 2414.98,965.19 2415.50,969.02 2420.70,968.42 2419.65,971.33 2418.73,973.84 2417.96,977.48 2417.81,981.99 2417.80,987.50 2418.26,992.68 2418.71,996.58 2419.72,1002.56 2420.97,1005.04 2423.03,1007.84 2425.56,1010.50 2428.23,1012.69 2429.32,1013.48 2421.07,1014.58 2422.10,1021.77 2438.67,1019.47"/>
    <poly id="247442017" type="leisure" color="207,245,201" fill="1" layer="-2.00" shape="2496.07,1003.93 2464.60,1008.53 2446.75,1011.14 2444.18,1011.17 2441.47,1010.86 2438.22,1010.50 2435.29,1008.91 2432.77,1007.45 2430.58,1005.66 2428.46,1003.47 2427.23,1001.40 2425.70,998.65 2424.66,996.11 2424.02,993.76 2423.93,991.20 2424.04,988.58 2424.29,986.69 2425.46,983.24 2426.52,980.14 2428.23,975.61 2430.97,973.09 2433.53,971.31 2437.09,969.52 2459.10,966.61 2498.65,961.38 2501.02,961.28 2505.08,961.71 2508.20,962.82 2510.46,964.21 2512.83,965.46 2515.50,967.31 2517.62,969.98 2519.00,972.13 2520.24,974.87 2521.36,977.48 2521.52,980.37 2521.42,982.93 2520.98,985.96 2520.26,988.94 2519.14,991.43 2517.75,994.28 2515.35,997.26 2513.07,999.31 2510.32,1001.36 2507.35,1002.06 2503.71,1002.91 2496.07,1003.93"/>
    <poly id="247442018" type="leisure" color="207,245,201" fill="1" layer="-2.00" shape="2447.08,1003.79 2432.36,1005.96 2428.18,977.17 2443.02,975.02 2447.08,1003.79"/>
    <poly id="247442018#1" type="sport" color="79,230,125" fill="1" layer="-2.00" shape="2447.08,1003.79 2432.36,1005.96 2428.18,977.17 2443.02,975.02 2447.08,1003.79"/>
    <poly id="247442019" type="leisure" color="207,245,201" fill="1" layer="-2.00" shape="2447.08,1003.79 2462.40,1001.63 2458.34,972.87 2443.02,975.02 2447.08,1003.79"/>
    <poly id="247442019#1" type="sport" color="79,230,125" fill="1" layer="-2.00" shape="2447.08,1003.79 2462.40,1001.63 2458.34,972.87 2443.02,975.02 2447.08,1003.79"/>
    <poly id="247442020" type="leisure" color="207,245,201" fill="1" layer="-2.00" shape="2464.60,1008.53 2459.10,966.61 2498.65,961.38 2501.02,961.28 2505.08,961.71 2508.20,962.82 2510.46,964.21 2512.83,965.46 2515.50,967.31 2517.62,969.98 2519.00,972.13 2520.24,974.87 2521.36,977.48 2521.52,980.37 2521.42,982.93 2520.98,985.96 2520.26,988.94 2519.14,991.43 2517.75,994.28 2515.35,997.26 2513.07,999.31 2510.32,1001.36 2507.35,1002.06 2503.71,1002.91 2496.07,1003.93 2464.60,1008.53"/>
    <poly id="247442020#1" type="sport" color="79,230,125" fill="1" layer="-2.00" shape="2464.60,1008.53 2459.10,966.61 2498.65,961.38 2501.02,961.28 2505.08,961.71 2508.20,962.82 2510.46,964.21 2512.83,965.46 2515.50,967.31 2517.62,969.98 2519.00,972.13 2520.24,974.87 2521.36,977.48 2521.52,980.37 2521.42,982.93 2520.98,985.96 2520.26,988.94 2519.14,991.43 2517.75,994.28 2515.35,997.26 2513.07,999.31 2510.32,1001.36 2507.35,1002.06 2503.71,1002.91 2496.07,1003.93 2464.60,1008.53"/>
    <poly id="247442026" type="amenity" color="237,199,199" fill="1" layer="-1.00" shape="2560.22,864.69 2559.93,862.17 2559.72,860.34 2464.48,875.07 2464.73,876.84 2465.12,879.57 2484.21,876.58 2494.72,874.94 2519.40,871.08 2560.22,864.69"/>
    <poly id="247442032" type="amenity" color="237,199,199" fill="1" layer="-1.00" shape="2439.90,882.10 2404.73,887.30 2404.24,883.54 2439.25,878.05 2439.45,879.25 2439.90,882.10"/>
    <poly id="247683324" type="building" color="255,230,230" fill="1" layer="-1.00" shape="2079.64,1022.51 2101.64,1019.71 2136.58,1015.13 2138.13,1015.73 2141.13,1044.98 2139.92,1046.52 2128.71,1048.08 2127.37,1046.77 2125.84,1029.68 2117.62,1031.10 2118.08,1035.50 2106.46,1037.16 2105.80,1032.67 2093.05,1034.14 2094.87,1050.39 2093.97,1051.84 2083.79,1053.18 2081.82,1051.57 2078.32,1023.96 2079.64,1022.51"/>
    <poly id="247683326" type="building" color="255,230,230" fill="0" layer="-1.00" shape="2169.85,982.31 2160.18,983.24 2174.70,1105.51 2185.09,1104.68"/>
    <poly id="247683327" type="building" color="255,230,230" fill="1" layer="-1.00" shape="1956.22,1039.47 2005.31,1016.05 2011.57,1029.60 1963.06,1053.01 1956.22,1039.47"/>
    <poly id="247683329" type="building" color="255,230,230" fill="1" layer="-1.00" shape="2111.16,1185.74 2116.96,1246.29 2130.71,1245.15 2149.72,1243.56 2142.21,1182.39 2111.16,1185.74"/>
    <poly id="247683330" type="building" color="255,230,230" fill="1" layer="-1.00" shape="2111.16,1185.74 2127.16,1184.11 2126.11,1168.05 2124.58,1149.67 2124.34,1146.74 2123.26,1133.77 2106.25,1134.83 2111.16,1185.74"/>
    <poly id="247683331" type="building" color="255,230,230" fill="0" layer="-1.00" shape="2193.16,1176.29 2176.31,1178.51 2174.80,1162.56 2171.52,1128.03 2187.83,1125.88"/>
    <poly id="247683332" type="building" color="255,230,230" fill="1" layer="-1.00" shape="2034.85,1138.14 2035.99,1147.94 2082.11,1143.76 2084.06,1158.66 2101.91,1157.40 2097.32,1130.11 2037.22,1136.55 2034.85,1138.14"/>
    <poly id="247683335" type="building" color="255,230,230" fill="1" layer="-1.00" shape="1987.53,1145.79 1989.51,1162.57 1989.84,1165.47 2031.22,1161.97 2030.80,1157.88 2029.66,1141.98 1987.53,1145.79"/>
    <poly id="247683336" type="building" color="255,230,230" fill="1" layer="-1.00" shape="2158.18,1180.57 2142.21,1182.39 2127.16,1184.11 2126.11,1168.05 2174.80,1162.56 2176.31,1178.51 2158.18,1180.57"/>
    <poly id="247683337" type="building" color="255,230,230" fill="0" layer="-1.00" shape="2193.16,1176.29 2176.31,1178.51 2181.94,1227.23 2163.91,1229.45 2158.18,1180.57 2142.21,1182.39 2149.72,1243.56 2150.11,1252.97"/>
    <poly id="247683339" type="building" color="255,230,230" fill="1" layer="-1.00" shape="2284.96,1016.01 2293.09,1015.24 2295.27,1037.97 2287.14,1038.75 2284.96,1016.01"/>
    <poly id="247683340" type="building" color="255,230,230" fill="1" layer="-1.00" shape="2282.06,985.20 2289.70,984.58 2291.61,1008.42 2283.96,1009.02 2282.06,985.20"/>
    <poly id="247683341" type="building" color="255,230,230" fill="1" layer="-1.00" shape="2232.19,1022.98 2234.17,1045.79 2240.97,1045.20 2238.99,1022.40 2232.19,1022.98"/>
    <poly id="247683342" type="building" color="255,230,230" fill="1" layer="-1.00" shape="2227.83,990.20 2230.20,1014.57 2237.96,1013.74 2235.30,989.82 2227.83,990.20"/>
    <poly id="247685957" type="building" color="255,230,230" fill="1" layer="-1.00" shape="2085.30,1118.98 2039.96,1125.18 2039.59,1122.68 2035.92,1121.81 2032.07,1116.04 2029.91,1107.50 2030.17,1099.97 2031.60,1094.49 2033.46,1091.76 2035.47,1090.55 2035.19,1087.04 2080.77,1082.31 2085.46,1081.58 2089.77,1118.59 2085.30,1118.98"/>
    <poly id="247685958" type="building" color="255,230,230" fill="1" layer="-1.00" shape="1989.64,1091.39 2011.88,1088.67 2016.70,1127.58 1994.45,1130.31 1989.64,1091.39"/>
    <poly id="247685959" type="building" color="255,230,230" fill="1" layer="-1.00" shape="1959.29,1055.16 2002.05,1045.23 2003.90,1055.99 1961.69,1065.68 1959.29,1055.16"/>
    <poly id="247685960" type="building" color="255,230,230" fill="1" layer="-1.00" shape="2014.02,1056.14 2017.88,1083.47 1995.09,1086.23 1994.35,1081.56 1988.63,1082.31 1986.39,1066.72 1992.34,1065.73 1991.46,1059.13 2014.02,1056.14"/>
    <poly id="247685961" type="building" color="255,230,230" fill="1" layer="-1.00" shape="2730.85,1216.12 2755.97,1209.06 2758.65,1218.48 2733.53,1225.54 2730.85,1216.12"/>
    <poly id="247685962" type="parking" color="184,184,179" fill="1" layer="-1.00" shape="2671.76,1214.39 2645.88,1220.81 2656.15,1258.57 2682.49,1250.29 2671.76,1214.39"/>
    <poly id="247685963" type="building" color="255,230,230" fill="1" layer="-1.00" shape="2692.21,1226.39 2717.33,1219.32 2720.01,1228.74 2694.89,1235.80 2692.21,1226.39"/>
    <poly id="247685964" type="parking" color="184,184,179" fill="1" layer="-1.00" shape="2814.94,1171.06 2772.59,1183.46 2789.76,1241.00 2814.97,1233.62 2820.69,1222.27 2825.47,1214.81 2828.30,1206.72 2819.80,1170.37 2814.94,1171.06"/>
    <poly id="247786553" type="building" color="255,230,230" fill="1" layer="-1.00" shape="2056.54,993.60 2062.10,1006.22 2015.39,1026.60 2009.82,1013.97 2056.54,993.60"/>
    <poly id="247786581" type="landuse" color="194,194,130" fill="1" layer="-3.00" shape="2162.37,1130.80 2164.96,1152.61 2164.21,1155.73 2162.27,1157.32 2137.40,1159.93 2135.58,1159.35 2133.68,1157.41 2131.82,1133.87 2162.37,1130.80"/>
    <poly id="248645868" type="landuse" color="194,194,130" fill="1" layer="-3.00" shape="2582.20,854.82 2584.83,860.05 2589.09,864.08 2594.46,866.43 2600.33,866.84 2605.55,865.45 2610.08,862.51 2613.46,858.31 2615.35,853.27 2604.47,775.06 2602.99,769.90 2599.96,765.44 2595.68,762.16 2590.59,760.36 2585.19,760.23 2579.58,762.01 2574.91,765.57 2571.73,770.48 2570.41,776.18 2582.20,854.82"/>
    <poly id="249742608" type="water" color="181,209,209" fill="1" layer="-4.00" shape="2776.09,1412.02 2772.69,1414.56 2770.04,1418.88 2767.91,1422.13 2765.07,1425.03 2762.75,1427.38 2763.15,1430.96 2765.72,1435.95 2767.39,1440.22 2772.06,1438.56 2772.00,1433.73 2771.60,1430.33 2773.20,1427.44 2777.66,1425.07 2783.07,1425.01 2785.97,1427.13 2789.26,1432.10 2791.45,1434.59 2794.16,1435.45 2797.76,1435.05 2801.21,1437.71 2803.21,1439.64 2806.80,1438.53 2808.91,1434.21 2812.14,1433.11 2818.43,1432.14 2824.56,1432.61 2828.14,1432.21 2831.17,1428.42 2835.65,1426.23 2841.05,1427.06 2844.33,1430.24 2847.59,1432.36 2850.63,1430.72 2854.42,1431.21 2859.46,1431.15 2863.09,1433.98 2865.84,1437.88 2868.86,1435.17 2867.56,1431.06 2863.57,1427.88 2861.90,1424.32 2860.77,1419.33 2860.71,1413.78 2858.87,1410.04 2856.68,1407.20 2852.74,1409.75 2847.19,1412.13 2843.40,1412.00 2842.12,1408.79 2844.57,1403.75 2851.19,1400.09 2855.34,1399.70 2860.52,1396.42 2863.19,1393.52 2864.22,1389.39 2864.19,1386.35 2862.16,1382.08 2859.27,1381.03 2856.79,1384.99 2853.24,1389.69 2849.13,1392.60 2842.51,1395.54 2834.99,1399.74 2829.10,1404.09 2825.70,1406.64 2816.58,1412.29 2811.01,1412.71 2803.98,1411.71 2800.02,1411.75 2795.02,1415.21 2789.83,1417.42 2784.78,1417.47 2781.71,1416.08 2778.79,1413.06 2776.09,1412.02"/>
    <poly id="252994067" type="building" color="255,230,230" fill="1" layer="-1.00" shape="2406.68,1207.23 2400.72,1150.38 2412.30,1149.18 2417.03,1194.33 2492.02,1186.56 2490.99,1176.80 2501.64,1175.68 2503.20,1190.66 2498.57,1191.15 2499.25,1197.63 2490.23,1198.56 2406.68,1207.23"/>
    <poly id="252994068" type="building" color="255,230,230" fill="1" layer="-1.00" shape="2499.25,1197.63 2553.07,1191.81 2554.35,1204.04 2491.62,1211.08 2490.23,1198.56 2499.25,1197.63"/>
    <poly id="252994069" type="building" color="255,230,230" fill="1" layer="-1.00" shape="2554.35,1204.04 2599.89,1199.33 2595.60,1128.37 2514.63,1134.76 2517.06,1158.03 2520.22,1157.71 2524.24,1157.29 2522.92,1144.62 2577.98,1138.92 2580.98,1138.61 2586.19,1188.39 2553.07,1191.81 2554.35,1204.04"/>
    <poly id="252994070" type="building" color="255,230,230" fill="1" layer="-1.00" shape="2386.12,1135.99 2424.93,1132.05 2418.89,1073.11 2380.08,1077.05 2386.12,1135.99"/>
    <poly id="252994071" type="building" color="255,230,230" fill="1" layer="-1.00" shape="2430.45,1079.48 2429.65,1069.87 2465.66,1066.95 2466.44,1076.57 2430.45,1079.48"/>
    <poly id="252994072" type="building" color="255,230,230" fill="1" layer="-1.00" shape="2478.86,1150.80 2495.29,1149.09 2511.12,1147.46 2509.68,1133.77 2477.43,1137.10 2478.86,1150.80"/>
    <poly id="252994073" type="leisure" color="207,245,201" fill="1" layer="-2.00" shape="2431.71,1186.00 2420.66,1082.87 2428.19,1082.39 2428.91,1088.63 2433.49,1083.99 2439.75,1081.61 2446.02,1079.57 2453.97,1080.14 2460.72,1082.66 2467.13,1086.68 2470.64,1091.39 2477.88,1154.36 2473.29,1162.08 2468.43,1167.25 2462.39,1170.81 2457.97,1172.61 2449.78,1171.88 2445.36,1170.25 2438.71,1166.67 2440.24,1185.41 2431.71,1186.00"/>