<?xml version="1.0" encoding="UTF-8"?>

<!-- generated on 08/25/17 20:00:26 by SUMO netconvert Version 0.30.0
<?xml version="1.0" encoding="UTF-8"?>

<configuration xmlns:xsi="http://www.w3.org/2001/XMLSchema-instance" xsi:noNamespaceSchemaLocation="http://sumo.dlr.de/xsd/netconvertConfiguration.xsd">

    <input>
        <osm-files value="map.osm"/>
    </input>

    <output>
        <output-file value="map.net.xml"/>
    </output>

    <projection>
        <proj.utm value="true"/>
    </projection>

</configuration>
-->

<net version="0.27" xmlns:xsi="http://www.w3.org/2001/XMLSchema-instance" xsi:noNamespaceSchemaLocation="http://sumo.dlr.de/xsd/net_file.xsd">

    <location netOffset="-347582.18,-2768827.70" convBoundary="0.00,0.00,2991.68,2351.92" origBoundary="121.489332,25.027631,121.518938,25.048826" projParameter="+proj=utm +zone=51 +ellps=WGS84 +datum=WGS84 +units=m +no_defs"/>

    <type id="highway.bridleway" priority="1" numLanes="1" speed="2.78" allow="pedestrian" oneway="1" width="2.00"/>
    <type id="highway.bus_guideway" priority="1" numLanes="1" speed="8.33" allow="bus" oneway="1"/>
    <type id="highway.cycleway" priority="1" numLanes="1" speed="5.56" allow="bicycle" oneway="0" width="1.00"/>
    <type id="highway.footway" priority="1" numLanes="1" speed="2.78" allow="pedestrian" oneway="1" width="2.00"/>
    <type id="highway.ford" priority="1" numLanes="1" speed="2.78" allow="army" oneway="0"/>
    <type id="highway.living_street" priority="3" numLanes="1" speed="2.78" disallow="tram rail_urban rail rail_electric ship" oneway="0"/>
    <type id="highway.motorway" priority="13" numLanes="2" speed="44.44" allow="private emergency authority army vip passenger hov taxi bus coach delivery truck trailer motorcycle evehicle custom1 custom2" oneway="1"/>
    <type id="highway.motorway_link" priority="12" numLanes="1" speed="22.22" allow="private emergency authority army vip passenger hov taxi bus coach delivery truck trailer motorcycle evehicle custom1 custom2" oneway="1"/>
    <type id="highway.path" priority="1" numLanes="1" speed="2.78" allow="bicycle pedestrian" oneway="1" width="2.00"/>
    <type id="highway.pedestrian" priority="1" numLanes="1" speed="2.78" allow="pedestrian" oneway="1" width="2.00"/>
    <type id="highway.primary" priority="9" numLanes="2" speed="27.78" disallow="tram rail_urban rail rail_electric ship" oneway="0"/>
    <type id="highway.primary_link" priority="8" numLanes="1" speed="22.22" disallow="tram rail_urban rail rail_electric ship" oneway="0"/>
    <type id="highway.raceway" priority="14" numLanes="2" speed="83.33" allow="vip" oneway="0"/>
    <type id="highway.residential" priority="4" numLanes="1" speed="13.89" disallow="tram rail_urban rail rail_electric ship" oneway="0"/>
    <type id="highway.secondary" priority="7" numLanes="2" speed="27.78" disallow="tram rail_urban rail rail_electric ship" oneway="0"/>
    <type id="highway.secondary_link" priority="6" numLanes="1" speed="22.22" disallow="tram rail_urban rail rail_electric ship" oneway="0"/>
    <type id="highway.service" priority="2" numLanes="1" speed="5.56" allow="delivery bicycle pedestrian" oneway="0"/>
    <type id="highway.services" priority="1" numLanes="1" speed="8.33" disallow="tram rail_urban rail rail_electric ship" oneway="0"/>
    <type id="highway.stairs" priority="1" numLanes="1" speed="1.39" allow="pedestrian" oneway="1" width="2.00"/>
    <type id="highway.step" priority="1" numLanes="1" speed="1.39" allow="pedestrian" oneway="1" width="2.00"/>
    <type id="highway.steps" priority="1" numLanes="1" speed="1.39" allow="pedestrian" oneway="1" width="2.00"/>
    <type id="highway.tertiary" priority="6" numLanes="1" speed="22.22" disallow="tram rail_urban rail rail_electric ship" oneway="0"/>
    <type id="highway.tertiary_link" priority="5" numLanes="1" speed="22.22" disallow="tram rail_urban rail rail_electric ship" oneway="0"/>
    <type id="highway.track" priority="1" numLanes="1" speed="5.56" disallow="tram rail_urban rail rail_electric ship" oneway="0"/>
    <type id="highway.trunk" priority="11" numLanes="2" speed="27.78" disallow="tram rail_urban rail rail_electric bicycle pedestrian ship" oneway="0"/>
    <type id="highway.trunk_link" priority="10" numLanes="1" speed="22.22" disallow="tram rail_urban rail rail_electric bicycle pedestrian ship" oneway="0"/>
    <type id="highway.unclassified" priority="5" numLanes="1" speed="13.89" disallow="tram rail_urban rail rail_electric ship" oneway="0"/>
    <type id="highway.unsurfaced" priority="1" numLanes="1" speed="8.33" disallow="tram rail_urban rail rail_electric ship" oneway="0"/>
    <type id="railway.light_rail" priority="15" numLanes="1" speed="27.78" allow="rail_urban" oneway="1"/>
    <type id="railway.preserved" priority="15" numLanes="1" speed="27.78" allow="rail" oneway="1"/>
    <type id="railway.rail" priority="15" numLanes="1" speed="83.33" allow="rail rail_electric" oneway="1"/>
    <type id="railway.subway" priority="15" numLanes="1" speed="27.78" allow="rail_urban" oneway="1"/>
    <type id="railway.tram" priority="15" numLanes="1" speed="13.89" allow="tram" oneway="1"/>

    <edge id=":1215000559_0" function="internal">
        <lane id=":1215000559_0_0" index="0" disallow="tram rail_urban rail rail_electric ship" speed="27.78" length="5.14" shape="1947.91,1621.65 1946.68,1622.22 1945.92,1623.08 1945.62,1624.23 1945.79,1625.67"/>
    </edge>
    <edge id=":1215000559_1" function="internal">
        <lane id=":1215000559_1_0" index="0" disallow="tram rail_urban rail rail_electric ship" speed="27.78" length="9.59" shape="1947.91,1621.65 1938.70,1624.33"/>
        <lane id=":1215000559_1_1" index="1" disallow="tram rail_urban rail rail_electric ship" speed="27.78" length="9.59" shape="1946.99,1618.48 1937.78,1621.16"/>
    </edge>
    <edge id=":1215000559_3" function="internal">
        <lane id=":1215000559_3_0" index="0" disallow="tram rail_urban rail rail_electric ship" speed="27.78" length="9.82" shape="1942.88,1616.14 1943.87,1618.93 1944.51,1620.85 1945.06,1622.80 1945.79,1625.67"/>
        <lane id=":1215000559_3_1" index="1" disallow="tram rail_urban rail rail_electric ship" speed="27.78" length="9.82" shape="1939.77,1617.26 1940.73,1619.96 1941.35,1621.82 1941.88,1623.71 1942.59,1626.48"/>
    </edge>
    <edge id=":1215000559_5" function="internal">
        <lane id=":1215000559_5_0" index="0" disallow="tram rail_urban rail rail_electric ship" speed="27.78" length="5.07" shape="1939.77,1617.26 1940.05,1618.63 1939.81,1619.74 1939.05,1620.58 1937.78,1621.16"/>
    </edge>
    <edge id=":1215000566_0" function="internal">
        <lane id=":1215000566_0_0" index="0" disallow="tram rail_urban rail rail_electric ship" speed="27.78" length="9.67" shape="1906.17,1625.09 1903.97,1615.76"/>
        <lane id=":1215000566_0_1" index="1" disallow="tram rail_urban rail rail_electric ship" speed="27.78" length="9.67" shape="1909.40,1624.42 1907.16,1614.92"/>
    </edge>
    <edge id=":1215000566_2" function="internal">
        <lane id=":1215000566_2_0" index="0" disallow="tram rail_urban rail rail_electric ship" speed="27.78" length="5.33" shape="1909.40,1624.42 1909.29,1622.94 1909.66,1621.76 1910.49,1620.90 1911.79,1620.34"/>
    </edge>
    <edge id=":1215000566_3" function="internal">
        <lane id=":1215000566_3_0" index="0" disallow="tram rail_urban rail rail_electric ship" speed="27.78" length="5.12" shape="1901.62,1619.58 1902.94,1619.03 1903.78,1618.22 1904.12,1617.12 1903.97,1615.76"/>
    </edge>
    <edge id=":1215000566_4" function="internal">
        <lane id=":1215000566_4_0" index="0" disallow="tram rail_urban rail rail_electric ship" speed="27.78" length="9.65" shape="1901.62,1619.58 1910.96,1617.15"/>
        <lane id=":1215000566_4_1" index="1" disallow="tram rail_urban rail rail_electric ship" speed="27.78" length="9.65" shape="1902.44,1622.77 1911.79,1620.34"/>
    </edge>
    <edge id=":1215000576_0" function="internal">
        <lane id=":1215000576_0_0" index="0" disallow="tram rail_urban rail rail_electric ship" speed="27.78" length="9.60" shape="1920.75,1621.18 1918.25,1611.88"/>
        <lane id=":1215000576_0_1" index="1" disallow="tram rail_urban rail rail_electric ship" speed="27.78" length="9.60" shape="1923.93,1620.29 1921.44,1611.05"/>
    </edge>
    <edge id=":1215000576_2" function="internal">
        <lane id=":1215000576_2_0" index="0" disallow="tram rail_urban rail rail_electric ship" speed="27.78" length="5.21" shape="1923.93,1620.29 1923.77,1618.93 1924.10,1617.81 1924.93,1616.94 1926.26,1616.33"/>
    </edge>
    <edge id=":1215000576_3" function="internal">
        <lane id=":1215000576_3_0" index="0" disallow="tram rail_urban rail rail_electric ship" speed="27.78" length="5.13" shape="1916.07,1615.81 1917.33,1615.27 1918.11,1614.44 1918.42,1613.31 1918.25,1611.88"/>
    </edge>
    <edge id=":1215000576_4" function="internal">
        <lane id=":1215000576_4_0" index="0" disallow="tram rail_urban rail rail_electric ship" speed="27.78" length="9.65" shape="1916.07,1615.81 1925.28,1613.18"/>
        <lane id=":1215000576_4_1" index="1" disallow="tram rail_urban rail rail_electric ship" speed="27.78" length="9.65" shape="1916.91,1619.01 1926.26,1616.33"/>
    </edge>
    <edge id=":1215000588_0" function="internal">
        <lane id=":1215000588_0_0" index="0" disallow="tram rail_urban rail rail_electric ship" speed="27.78" length="5.07" shape="1908.82,1636.21 1908.26,1634.93 1907.43,1634.12 1906.34,1633.78 1904.98,1633.90"/>
    </edge>
    <edge id=":1215000588_1" function="internal">
        <lane id=":1215000588_1_0" index="0" disallow="tram rail_urban rail rail_electric ship" speed="27.78" length="9.73" shape="1908.82,1636.21 1906.49,1626.64"/>
        <lane id=":1215000588_1_1" index="1" disallow="tram rail_urban rail rail_electric ship" speed="27.78" length="9.73" shape="1912.00,1635.32 1909.72,1625.97"/>
    </edge>
    <edge id=":1215000588_3" function="internal">
        <lane id=":1215000588_3_0" index="0" disallow="tram rail_urban rail rail_electric ship" speed="27.78" length="9.67" shape="1914.40,1631.40 1904.98,1633.90"/>
        <lane id=":1215000588_3_1" index="1" disallow="tram rail_urban rail rail_electric ship" speed="27.78" length="9.67" shape="1913.48,1628.23 1904.21,1630.69"/>
    </edge>
    <edge id=":1215000588_5" function="internal">
        <lane id=":1215000588_5_0" index="0" disallow="tram rail_urban rail rail_electric ship" speed="27.78" length="5.10" shape="1913.48,1628.23 1912.08,1628.43 1910.99,1628.12 1910.20,1627.30 1909.72,1625.97"/>
    </edge>
    <edge id=":1215000638_0" function="internal">
        <lane id=":1215000638_0_0" index="0" disallow="tram rail_urban rail rail_electric ship" speed="27.78" length="5.60" shape="1939.38,1605.61 1939.99,1606.89 1940.94,1607.69 1942.22,1608.01 1943.83,1607.86"/>
    </edge>
    <edge id=":1215000638_1" function="internal">
        <lane id=":1215000638_1_0" index="0" disallow="tram rail_urban rail rail_electric ship" speed="27.78" length="9.89" shape="1939.38,1605.61 1942.44,1614.92"/>
        <lane id=":1215000638_1_1" index="1" disallow="tram rail_urban rail rail_electric ship" speed="27.78" length="9.89" shape="1936.21,1606.55 1939.33,1616.03"/>
    </edge>
    <edge id=":1215000638_3" function="internal">
        <lane id=":1215000638_3_0" index="0" disallow="tram rail_urban rail rail_electric ship" speed="27.78" length="9.88" shape="1934.15,1610.42 1943.83,1607.86"/>
        <lane id=":1215000638_3_1" index="1" disallow="tram rail_urban rail rail_electric ship" speed="27.78" length="9.88" shape="1935.13,1613.57 1944.55,1611.08"/>
    </edge>
    <edge id=":1215000642_0" function="internal">
        <lane id=":1215000642_0_0" index="0" disallow="tram rail_urban rail rail_electric ship" speed="25.00" length="6.51" shape="1949.90,1599.69 1950.49,1600.95 1951.34,1601.71 1952.44,1601.95 1953.81,1601.68"/>
        <lane id=":1215000642_0_1" index="1" disallow="tram rail_urban rail rail_electric ship" speed="25.00" length="6.51" shape="1949.90,1599.69 1950.92,1602.33 1952.09,1604.06 1953.42,1604.88 1954.91,1604.79"/>
    </edge>
    <edge id=":1215000642_2" function="internal">
        <lane id=":1215000642_2_0" index="0" disallow="tram rail_urban rail rail_electric ship" speed="27.78" length="15.00" shape="1949.90,1599.69 1954.43,1613.93"/>
        <lane id=":1215000642_2_1" index="1" disallow="tram rail_urban rail rail_electric ship" speed="27.78" length="15.00" shape="1946.74,1600.64 1951.30,1614.98"/>
    </edge>
    <edge id=":1215000642_4" function="internal">
        <lane id=":1215000642_4_0" index="0" disallow="tram rail_urban rail rail_electric ship" speed="25.00" length="10.91" shape="1945.45,1607.50 1948.57,1607.32 1950.79,1607.92 1952.97,1608.42 1956.00,1607.90"/>
        <lane id=":1215000642_4_1" index="1" disallow="tram rail_urban rail rail_electric ship" speed="25.00" length="10.91" shape="1946.17,1610.72 1949.40,1610.52 1951.70,1611.10 1953.96,1611.57 1957.09,1611.02"/>
    </edge>
    <edge id=":1215000642_6" function="internal">
        <lane id=":1215000642_6_0" index="0" disallow="tram rail_urban rail rail_electric ship" speed="27.78" length="7.37" shape="1946.17,1610.72 1947.78,1610.70 1949.17,1611.40 1950.34,1612.83 1951.30,1614.98"/>
    </edge>
    <edge id=":1215000651_0" function="internal">
        <lane id=":1215000651_0_0" index="0" disallow="tram rail_urban rail rail_electric ship" speed="27.78" length="5.03" shape="1923.74,1631.95 1923.19,1630.68 1922.38,1629.90 1921.28,1629.60 1919.92,1629.80"/>
    </edge>
    <edge id=":1215000651_1" function="internal">
        <lane id=":1215000651_1_0" index="0" disallow="tram rail_urban rail rail_electric ship" speed="27.78" length="7.28" shape="1923.74,1631.95 1921.59,1624.18"/>
        <lane id=":1215000651_1_1" index="1" disallow="tram rail_urban rail rail_electric ship" speed="27.78" length="7.28" shape="1926.92,1631.10 1925.22,1624.84"/>
    </edge>
    <edge id=":1215000651_3" function="internal">
        <lane id=":1215000651_3_0" index="0" disallow="tram rail_urban rail rail_electric ship" speed="27.78" length="9.58" shape="1929.11,1627.12 1919.92,1629.80"/>
        <lane id=":1215000651_3_1" index="1" disallow="tram rail_urban rail rail_electric ship" speed="27.78" length="9.58" shape="1928.19,1623.95 1918.99,1626.63"/>
    </edge>
    <edge id=":1215000651_5" function="internal">
        <lane id=":1215000651_5_0" index="0" disallow="tram rail_urban rail rail_electric ship" speed="27.78" length="3.34" shape="1928.19,1623.95 1927.36,1624.34 1926.45,1624.86 1925.66,1625.14 1925.22,1624.84"/>
    </edge>
    <edge id=":1223756571_0" function="internal">
        <lane id=":1223756571_0_0" index="0" disallow="tram rail_urban rail rail_electric ship" speed="20.84" length="5.07" shape="1731.38,949.14 1730.84,947.85 1730.02,947.06 1728.92,946.78 1727.54,947.01"/>
    </edge>
    <edge id=":1223756571_1" function="internal">
        <lane id=":1223756571_1_0" index="0" disallow="tram rail_urban rail rail_electric ship" speed="20.84" length="8.03" shape="1734.57,948.31 1733.98,945.39 1733.90,943.17 1734.34,941.65 1735.28,940.84"/>
    </edge>
    <edge id=":1223756571_2" function="internal">
        <lane id=":1223756571_2_0" index="0" disallow="tram rail_urban rail rail_electric ship" speed="13.89" length="9.43" shape="1736.45,943.93 1727.54,947.01"/>
    </edge>
    <edge id=":1223756571_3" function="internal">
        <lane id=":1223756571_3_0" index="0" disallow="tram rail_urban rail rail_electric ship" speed="13.89" length="2.52" shape="1736.45,943.93 1735.00,943.60 1734.32,942.97 1734.34,942.86"/>
    </edge>
    <edge id=":1223756571_6" function="internal">
        <lane id=":1223756571_6_0" index="0" speed="13.89" length="2.30" shape="1734.34,942.86 1734.42,942.05 1735.28,940.84"/>
    </edge>
    <edge id=":1223756571_4" function="internal">
        <lane id=":1223756571_4_0" index="0" disallow="tram rail_urban rail rail_electric ship" speed="13.89" length="9.25" shape="1726.54,943.86 1735.28,940.84"/>
    </edge>
    <edge id=":1223756571_5" function="internal">
        <lane id=":1223756571_5_0" index="0" disallow="tram rail_urban rail rail_electric ship" speed="13.89" length="2.41" shape="1726.54,943.86 1727.97,944.28 1728.61,944.94"/>
    </edge>
    <edge id=":1223756571_7" function="internal">
        <lane id=":1223756571_7_0" index="0" speed="13.89" length="2.41" shape="1728.61,944.94 1728.47,945.85 1727.54,947.01"/>
    </edge>
    <edge id=":1223756641_0" function="internal">
        <lane id=":1223756641_0_0" index="0" disallow="tram rail_urban rail rail_electric ship" speed="13.89" length="5.84" shape="2009.91,1422.54 2009.31,1421.19 2008.35,1420.30 2007.04,1419.87 2005.36,1419.90"/>
    </edge>
    <edge id=":1223756641_1" function="internal">
        <lane id=":1223756641_1_0" index="0" disallow="tram rail_urban rail rail_electric ship" speed="13.89" length="9.91" shape="2009.91,1422.54 2007.33,1412.97"/>
    </edge>
    <edge id=":1223756641_2" function="internal">
        <lane id=":1223756641_2_0" index="0" disallow="tram rail_urban rail rail_electric ship" speed="13.89" length="7.84" shape="2009.91,1422.54 2009.36,1419.72 2009.41,1417.64 2010.05,1416.29 2011.30,1415.67"/>
    </edge>
    <edge id=":1223756641_3" function="internal">
        <lane id=":1223756641_3_0" index="0" disallow="tram rail_urban rail rail_electric ship" speed="13.89" length="6.55" shape="2011.84,1418.92 2005.36,1419.90"/>
    </edge>
    <edge id=":1223756641_4" function="internal">
        <lane id=":1223756641_4_0" index="0" disallow="tram rail_urban rail rail_electric ship" speed="13.89" length="2.93" shape="2011.84,1418.92 2010.52,1418.72 2009.33,1417.67"/>
    </edge>
    <edge id=":1223756641_5" function="internal">
        <lane id=":1223756641_5_0" index="0" disallow="tram rail_urban rail rail_electric ship" speed="13.89" length="2.41" shape="2011.84,1418.92 2010.48,1418.31 2009.94,1417.57"/>
    </edge>
    <edge id=":1223756641_9" function="internal">
        <lane id=":1223756641_9_0" index="0" speed="13.89" length="5.12" shape="2009.33,1417.67 2008.26,1415.75 2007.33,1412.97"/>
    </edge>
    <edge id=":1223756641_10" function="internal">
        <lane id=":1223756641_10_0" index="0" speed="13.89" length="2.41" shape="2009.94,1417.57 2010.21,1416.68 2011.30,1415.67"/>
    </edge>
    <edge id=":1223756641_6" function="internal">
        <lane id=":1223756641_6_0" index="0" disallow="tram rail_urban rail rail_electric ship" speed="13.89" length="5.16" shape="2004.91,1416.63 2006.29,1416.23 2007.16,1415.49 2007.50,1414.40 2007.33,1412.97"/>
    </edge>
    <edge id=":1223756641_7" function="internal">
        <lane id=":1223756641_7_0" index="0" disallow="tram rail_urban rail rail_electric ship" speed="13.89" length="6.46" shape="2004.91,1416.63 2011.30,1415.67"/>
    </edge>
    <edge id=":1223756641_8" function="internal">
        <lane id=":1223756641_8_0" index="0" disallow="tram rail_urban rail rail_electric ship" speed="13.89" length="2.41" shape="2004.91,1416.63 2006.25,1417.28 2006.77,1418.04"/>
    </edge>
    <edge id=":1223756641_11" function="internal">
        <lane id=":1223756641_11_0" index="0" speed="13.89" length="2.41" shape="2006.77,1418.04 2006.48,1418.91 2005.36,1419.90"/>
    </edge>
    <edge id=":1223756647_0" function="internal">
        <lane id=":1223756647_0_0" index="0" disallow="tram rail_urban rail rail_electric ship" speed="13.89" length="5.47" shape="2156.55,813.33 2151.30,814.86"/>
    </edge>
    <edge id=":1223756647_1" function="internal">
        <lane id=":1223756647_1_0" index="0" disallow="tram rail_urban rail rail_electric ship" speed="13.89" length="2.41" shape="2156.55,813.33 2155.13,812.87 2154.51,812.19"/>
    </edge>
    <edge id=":1223756647_4" function="internal">
        <lane id=":1223756647_4_0" index="0" speed="13.89" length="2.41" shape="2154.51,812.19 2154.68,811.29 2155.64,810.15"/>
    </edge>
    <edge id=":1223756647_2" function="internal">
        <lane id=":1223756647_2_0" index="0" disallow="tram rail_urban rail rail_electric ship" speed="13.89" length="5.51" shape="2150.35,811.70 2155.64,810.15"/>
    </edge>
    <edge id=":1223756647_3" function="internal">
        <lane id=":1223756647_3_0" index="0" disallow="tram rail_urban rail rail_electric ship" speed="13.89" length="2.41" shape="2150.35,811.70 2151.77,812.14 2152.41,812.81"/>
    </edge>
    <edge id=":1223756647_5" function="internal">
        <lane id=":1223756647_5_0" index="0" speed="13.89" length="2.41" shape="2152.41,812.81 2152.25,813.72 2151.30,814.86"/>
    </edge>
    <edge id=":1223756952_0" function="internal">
        <lane id=":1223756952_0_0" index="0" disallow="tram rail_urban rail rail_electric ship" speed="13.89" length="7.76" shape="1734.46,1465.89 1732.80,1463.77 1731.28,1462.26 1729.89,1461.38 1728.65,1461.10"/>
    </edge>
    <edge id=":1223756952_1" function="internal">
        <lane id=":1223756952_1_0" index="0" disallow="tram rail_urban rail rail_electric ship" speed="13.89" length="13.26" shape="1734.46,1465.89 1732.63,1462.40 1732.66,1459.72 1734.58,1457.83 1738.37,1456.76"/>
    </edge>
    <edge id=":1223756952_2" function="internal">
        <lane id=":1223756952_2_0" index="0" disallow="tram rail_urban rail rail_electric ship" speed="13.89" length="4.82" shape="1734.46,1465.89 1734.42,1464.40 1734.85,1463.59 1735.76,1463.44 1737.15,1463.97"/>
    </edge>
    <edge id=":1223756952_3" function="internal">
        <lane id=":1223756952_3_0" index="0" disallow="tram rail_urban rail rail_electric ship" speed="13.89" length="5.73" shape="1738.84,1460.02 1737.20,1460.49 1736.37,1461.30 1736.36,1462.46 1737.15,1463.97"/>
    </edge>
    <edge id=":1223756952_4" function="internal">
        <lane id=":1223756952_4_0" index="0" disallow="tram rail_urban rail rail_electric ship" speed="13.89" length="10.26" shape="1738.84,1460.02 1735.86,1460.47 1733.76,1460.77 1731.65,1460.97 1728.65,1461.10"/>
    </edge>
    <edge id=":1223756952_5" function="internal">
        <lane id=":1223756952_5_0" index="0" disallow="tram rail_urban rail rail_electric ship" speed="13.89" length="2.41" shape="1738.84,1460.02 1737.50,1459.38 1736.97,1458.62"/>
    </edge>
    <edge id=":1223756952_9" function="internal">
        <lane id=":1223756952_9_0" index="0" speed="13.89" length="2.41" shape="1736.97,1458.62 1737.27,1457.75 1738.37,1456.76"/>
    </edge>
    <edge id=":1223756952_6" function="internal">
        <lane id=":1223756952_6_0" index="0" disallow="tram rail_urban rail rail_electric ship" speed="13.89" length="9.89" shape="1728.55,1457.80 1731.48,1457.68 1733.48,1457.49 1735.47,1457.20 1738.37,1456.76"/>
    </edge>
    <edge id=":1223756952_7" function="internal">
        <lane id=":1223756952_7_0" index="0" disallow="tram rail_urban rail rail_electric ship" speed="13.89" length="4.52" shape="1728.55,1457.80 1730.63,1458.14 1732.76,1459.28"/>
    </edge>
    <edge id=":1223756952_8" function="internal">
        <lane id=":1223756952_8_0" index="0" disallow="tram rail_urban rail rail_electric ship" speed="13.89" length="2.41" shape="1728.55,1457.80 1729.81,1458.59 1730.25,1459.40"/>
    </edge>
    <edge id=":1223756952_10" function="internal">
        <lane id=":1223756952_10_0" index="0" speed="13.89" length="6.44" shape="1732.76,1459.28 1734.93,1461.23 1737.15,1463.97"/>
    </edge>
    <edge id=":1223756952_11" function="internal">
        <lane id=":1223756952_11_0" index="0" speed="13.89" length="2.41" shape="1730.25,1459.40 1729.86,1460.24 1728.65,1461.10"/>
    </edge>
    <edge id=":1223757201_0" function="internal">
        <lane id=":1223757201_0_0" index="0" disallow="tram rail_urban rail rail_electric ship" speed="13.89" length="0.21" shape="1913.97,1432.55 1913.75,1432.58"/>
    </edge>
    <edge id=":1223757201_1" function="internal">
        <lane id=":1223757201_1_0" index="0" disallow="tram rail_urban rail rail_electric ship" speed="13.89" length="2.41" shape="1913.97,1432.55 1912.63,1431.90 1912.11,1431.14"/>
    </edge>
    <edge id=":1223757201_4" function="internal">
        <lane id=":1223757201_4_0" index="0" speed="13.89" length="2.41" shape="1912.11,1431.14 1912.40,1430.27 1913.51,1429.28"/>
    </edge>
    <edge id=":1223757201_2" function="internal">
        <lane id=":1223757201_2_0" index="0" disallow="tram rail_urban rail rail_electric ship" speed="13.89" length="0.31" shape="1913.21,1429.33 1913.51,1429.28"/>
    </edge>
    <edge id=":1223757201_3" function="internal">
        <lane id=":1223757201_3_0" index="0" disallow="tram rail_urban rail rail_electric ship" speed="13.89" length="2.41" shape="1913.21,1429.33 1914.57,1429.94 1915.11,1430.68"/>
    </edge>
    <edge id=":1223757201_5" function="internal">
        <lane id=":1223757201_5_0" index="0" speed="13.89" length="2.41" shape="1915.11,1430.68 1914.84,1431.57 1913.75,1432.58"/>
    </edge>
    <edge id=":1223757527_0" function="internal">
        <lane id=":1223757527_0_0" index="0" disallow="tram rail_urban rail rail_electric ship" speed="20.84" length="5.57" shape="1752.65,938.13 1751.31,938.77 1750.48,939.71 1750.17,940.95 1750.36,942.49"/>
    </edge>
    <edge id=":1223757527_1" function="internal">
        <lane id=":1223757527_1_0" index="0" disallow="tram rail_urban rail rail_electric ship" speed="13.89" length="9.91" shape="1752.65,938.13 1743.27,941.34"/>
    </edge>
    <edge id=":1223757527_2" function="internal">
        <lane id=":1223757527_2_0" index="0" disallow="tram rail_urban rail rail_electric ship" speed="13.89" length="2.41" shape="1752.65,938.13 1751.23,937.70 1750.59,937.03"/>
    </edge>
    <edge id=":1223757527_10" function="internal">
        <lane id=":1223757527_10_0" index="0" speed="13.89" length="2.41" shape="1750.59,937.03 1750.74,936.12 1751.69,934.97"/>
    </edge>
    <edge id=":1223757527_3" function="internal">
        <lane id=":1223757527_3_0" index="0" disallow="tram rail_urban rail rail_electric ship" speed="20.84" length="5.07" shape="1747.87,932.81 1748.40,934.11 1749.21,934.90 1750.30,935.19 1751.69,934.97"/>
    </edge>
    <edge id=":1223757527_4" function="internal">
        <lane id=":1223757527_4_0" index="0" disallow="tram rail_urban rail rail_electric ship" speed="27.78" length="10.03" shape="1747.87,932.81 1750.36,942.49"/>
        <lane id=":1223757527_4_1" index="1" disallow="tram rail_urban rail rail_electric ship" speed="27.78" length="10.03" shape="1744.67,933.60 1747.18,943.34"/>
    </edge>
    <edge id=":1223757527_6" function="internal">
        <lane id=":1223757527_6_0" index="0" disallow="tram rail_urban rail rail_electric ship" speed="20.84" length="8.52" shape="1744.67,933.60 1745.19,936.56 1745.13,938.83 1744.49,940.43 1743.27,941.34"/>
    </edge>
    <edge id=":1223757527_7" function="internal">
        <lane id=":1223757527_7_0" index="0" disallow="tram rail_urban rail rail_electric ship" speed="13.89" length="10.13" shape="1742.10,938.26 1751.69,934.97"/>
    </edge>
    <edge id=":1223757527_8" function="internal">
        <lane id=":1223757527_8_0" index="0" disallow="tram rail_urban rail rail_electric ship" speed="20.84" length="3.32" shape="1742.10,938.26 1743.68,938.10 1745.05,938.89 1745.14,939.01"/>
    </edge>
    <edge id=":1223757527_9" function="internal">
        <lane id=":1223757527_9_0" index="0" disallow="tram rail_urban rail rail_electric ship" speed="13.89" length="2.52" shape="1742.10,938.26 1743.55,938.59 1744.23,939.22 1744.22,939.33"/>
    </edge>
    <edge id=":1223757527_11" function="internal">
        <lane id=":1223757527_11_0" index="0" speed="20.84" length="4.82" shape="1745.14,939.01 1746.22,940.64 1747.18,943.34"/>
    </edge>
    <edge id=":1223757527_12" function="internal">
        <lane id=":1223757527_12_0" index="0" speed="13.89" length="2.30" shape="1744.22,939.33 1744.14,940.13 1743.27,941.34"/>
    </edge>
    <edge id=":1273038189_0" function="internal">
        <lane id=":1273038189_0_0" index="0" disallow="tram rail_urban rail rail_electric ship" speed="20.84" length="16.02" shape="1567.75,1001.83 1563.72,998.78 1560.17,997.09 1556.77,996.41 1553.21,996.42"/>
    </edge>
    <edge id=":1273038189_1" function="internal">
        <lane id=":1273038189_1_0" index="0" disallow="tram rail_urban rail rail_electric ship" speed="27.78" length="18.13" shape="1567.75,1001.83 1554.52,989.24"/>
        <lane id=":1273038189_1_1" index="1" disallow="tram rail_urban rail rail_electric ship" speed="27.78" length="18.13" shape="1569.93,999.36 1556.90,986.95"/>
    </edge>
    <edge id=":1273038189_3" function="internal">
        <lane id=":1273038189_3_0" index="0" disallow="tram rail_urban rail rail_electric ship" speed="20.84" length="6.60" shape="1569.93,999.36 1567.12,996.37 1566.39,994.18 1566.52,994.04"/>
    </edge>
    <edge id=":1273038189_10" function="internal">
        <lane id=":1273038189_10_0" index="0" speed="20.84" length="5.21" shape="1566.52,994.04 1567.74,992.79 1571.16,992.21"/>
    </edge>
    <edge id=":1273038189_4" function="internal">
        <lane id=":1273038189_4_0" index="0" disallow="tram rail_urban rail rail_electric ship" speed="13.89" length="18.11" shape="1571.29,995.51 1553.21,996.42"/>
    </edge>
    <edge id=":1273038189_5" function="internal">
        <lane id=":1273038189_5_0" index="0" disallow="tram rail_urban rail rail_electric ship" speed="20.84" length="17.16" shape="1571.29,995.51 1568.18,995.06 1564.74,993.49 1560.98,990.79 1556.90,986.95"/>
    </edge>
    <edge id=":1273038189_6" function="internal">
        <lane id=":1273038189_6_0" index="0" disallow="tram rail_urban rail rail_electric ship" speed="13.89" length="4.82" shape="1571.29,995.51 1570.02,994.73 1569.58,993.93 1569.96,993.08 1571.16,992.21"/>
    </edge>
    <edge id=":1273038189_7" function="internal">